45
Coordinates from ORCA job orca
  No     -0.74740985305491     -0.87876999390748      0.34973171390048
  C       2.08884338841580     -0.30925754943258      1.92539853559985
  C       1.11716465188169     -0.97714547192460      2.92263008186124
  O       1.51712832020666     -1.15506197420142      4.06119536636315
  O      -0.05380300810369     -1.23134521958283      2.46047416277933
  N       1.74354570437488     -0.48655333736988      0.51549224112510
  H       3.11110460829902     -0.64429247510632      2.17307326799782
  H       2.04738915669901      0.76996765143240      2.15189711011561
  H       2.19848775755585     -1.31212011123676      0.11381638598069
  H       2.05149039477920      0.32786736655985     -0.01907633024599
  S       2.17071186282327     -3.45659941914627     -1.61572723458490
  C       0.64847885780182     -3.23108028081305     -1.07837101425330
  N      -0.45696996992400     -3.03800156433019     -0.69461761574446
  C      -1.73472548364441      5.51496233660871     -2.62483847542790
  C      -0.41611315665893      5.17689080810079     -2.93553405123497
  C       0.25438362282045      4.22914187946443     -2.17001124261064
  C      -0.39191150439722      3.60044818124792     -1.09920024715518
  C      -1.71202465677192      3.94406064853316     -0.78759620981063
  C      -2.37765883119557      4.90123243925940     -1.55089209161471
  C       0.39136325430996      2.58506787905440     -0.32852637564973
  O       1.58634784303740      2.45120052163956     -0.48607513474099
  O      -0.26184099321397      1.83724668104747      0.54416631393280
  H      -2.26471159872461      6.25913683499210     -3.22629379504254
  H       0.08880909139397      5.65463723362302     -3.77944531289492
  H       1.28864164087484      3.94691019832662     -2.38171990401470
  H      -2.24341712012826      3.44520774050439      0.02768970903392
  H      -3.41149034922708      5.16044742238224     -1.30752543250101
  H      -1.26658979907661      1.79085452515423      0.43278977793162
  Cl     -2.94003921579252      0.85431827858141      0.24535278304759
  C      -0.74649467062487     -2.97304784802918     -4.09184203738055
  O      -0.84450991479362     -1.56383928685796     -4.19663084105669
  P      -1.54771006759794     -0.70635146219093     -2.99323060204004
  O      -1.80072212987205      0.59811472870017     -3.96264158550898
  C      -2.49471185970181      1.70009376543428     -3.40896700970668
  O      -0.20832310316735     -0.18532265792987     -2.12679140915850
  C       1.01404024328038      0.10651627817235     -2.80372850103340
  H      -0.97804836074254     -3.40328117315260     -5.07896894924905
  H      -1.44874931697396     -3.37936301922946     -3.34439012822408
  H       0.27382932675803     -3.26451435529368     -3.79264973461120
  H      -1.82040823179488      2.56948019779445     -3.34470664520312
  H      -2.88205020505595      1.48799810375538     -2.39504212908067
  H      -3.33937482666414      1.95838218280455     -4.06915295623558
  H       1.63698194646307     -0.80150527838362     -2.84872562259747
  H       1.53380878633429      0.89027891325557     -2.23487281722542
  H       0.80615776879329      0.46998968168964     -3.82241601383097
