60
Coordinates from ORCA job orca
  Es     -0.03040926892512      0.26097388707912     -0.12799688095746
  N      -1.13866367283492      0.46553420847615      2.23901354010976
  C      -1.97810486444320     -0.67308840313070      2.59985282215796
  C      -1.40425917730330     -1.97050382927134      2.04562457302724
  N      -1.12136957322526     -1.92209997209720      0.62020205162523
  C      -2.21265132244257     -2.27218532667448     -0.27628233343291
  C      -3.22361296420052     -1.14597854320020     -0.44341730816611
  N      -2.54163529533295      0.10618127130490     -0.73710570194441
  H      -1.68182187237767      1.33316559097757      2.29235282645297
  H      -0.36114149467266      0.56535777979545      2.89210604145268
  H      -2.11020855910159     -0.77687750492108      3.69384829359616
  H      -2.98069249764464     -0.48855514227940      2.18887045600036
  H      -0.44698430022609     -2.18468298846963      2.55478151820801
  H      -2.08672754636162     -2.80654103187683      2.30350659982916
  H      -0.30670594934789     -2.54274961489343      0.44403622655436
  H      -1.75694325011634     -2.48079531744084     -1.25750646377156
  H      -2.74052468100068     -3.19057339749783      0.05374519156254
  H      -3.95115223119426     -1.43765871005249     -1.22526644899311
  H      -3.81107886885252     -1.01737260447415      0.47974573923531
  H      -2.20519318574251      0.10910657118854     -1.70603616725243
  H      -3.14924124081447      0.91139036890756     -0.58538565961634
  C       6.31136255901208     -3.14227846830156      0.52764822891385
  C       5.37438131546516     -4.17250024597553      0.62154406045315
  C       4.01376046270529     -3.88154931875386      0.58606178110045
  C       3.57983940697053     -2.55814010764655      0.46317042101744
  C       4.52249412806454     -1.52977754975299      0.36544825977033
  C       5.88474992266692     -1.82052427022087      0.39636197947520
  C       2.10418872986881     -2.26872580586798      0.44427065821241
  O       1.77486091382174     -1.02945118259438      0.45575379558370
  O       1.31120351581858     -3.21540576363978      0.43747740085201
  H       7.38038663730430     -3.37133110594496      0.55420285700227
  H       5.70999791351171     -5.20836933307107      0.72170691701817
  H       3.25454399172291     -4.66467916367161      0.65302492588785
  H       4.16603055371538     -0.50192026596488      0.25867967652878
  H       6.61937229245355     -1.01429858178566      0.31617361673647
  C       2.31638530771536      3.70519981390154      2.59682696621962
  C       1.48230217156933      2.99528889433913      1.73104989249981
  N       1.58876703215216      1.67026162401541      1.60418421967451
  C       2.52256675372449      1.06170517717803      2.33987858350033
  C       3.34457175962552      1.78599892371690      3.20452300803616
  N       3.24523918718283      3.10516285561474      3.33443061286416
  H       2.22067128360588      4.79293514197142      2.68996983284849
  H       0.71013533430799      3.47743930421298      1.11841770773703
  H       2.61418054928067     -0.02078466916935      2.20501701409255
  H       4.10635028067052      1.27288137005739      3.80246662928679
  C       1.60085236075443     -1.77113851430037     -2.97731723351626
  C       0.41994950918493     -0.85417411108951     -3.26093284506432
  O      -0.26045572438144     -0.48333318199050     -2.12451529201719
  H       2.10106736419043     -2.09011277261963     -3.90702164522957
  H       1.26623070207539     -2.67014317050549     -2.43406444259722
  H       2.34811699118513     -1.26771659859443     -2.34005157965419
  H      -0.25932424212323     -1.36216492450069     -3.98121124125011
  H       0.79457300653904      0.03945996791606     -3.82372402519612
  N      -0.86414593758389      2.54890488533811     -0.19506836059138
  N      -1.86765945835782      2.73780193210700      0.41964189313023
  N      -2.83953493074176      2.88216294807737      1.03033144645042
  N       1.61911859902122      1.65851881929540     -1.46785823928705
  H       2.56759823913236      1.84419356375422     -1.14610178979369
  H       1.11116882801201      2.54541990855114     -1.49751401577950
  H       1.67272450631714      1.30023668446550     -2.42177059059329
