44
Coordinates from ORCA job orca
  Cm     -0.58626764384099     -0.31190649574657      0.30776257900788
  N      -0.12806183738377     -2.27401206785736     -1.30569975878162
  C      -0.09948456634816     -3.51928243213443     -0.82745602848228
  C       0.41591250264744     -4.59115942256914     -1.54798146948225
  C       0.93341329369343     -4.34043206768255     -2.81456284857425
  C       0.90538865197765     -3.04363419712775     -3.31176082461181
  C       0.35502306982278     -2.02150764333035     -2.53239852617260
  C       0.27282854940123     -0.61815504164322     -3.00881729401134
  C       0.66628916261714     -0.24557861674572     -4.29675000523493
  C       0.56170560759093      1.08425975349805     -4.68426818070058
  C       0.06702747053983      2.01602987673277     -3.77838535972715
  C      -0.30565296988362      1.57054613923876     -2.51493286802344
  N      -0.20775901598845      0.29103009119042     -2.14370725995633
  H      -0.50825001484937     -3.65853437817653      0.17986081962658
  H       0.41368944143456     -5.59343143475558     -1.11560042061440
  H       1.36287298091898     -5.14797606052101     -3.41257061858125
  H       1.32182235141837     -2.83120983074670     -4.29611198958864
  H       1.05639993711903     -0.98509990073874     -4.99543833234864
  H       0.87078832980978      1.38882970178367     -5.68721048354836
  H      -0.03019078454039      3.07234758142134     -4.03553709007964
  H      -0.69602562440307      2.25642280056395     -1.75539082895288
  S      -1.27786091216940      4.19055690638329      2.16547289992224
  C      -1.21891513443887      2.89992509541039      1.22324610033626
  N      -1.16099571038802      1.92519319514260      0.53488258322978
  C       1.60147492551826      1.49677491125902      3.16709843537072
  P       0.30132938338181      0.21394810609045      3.09018605944961
  C       1.08295791013153     -1.23780833111654      3.88783411690101
  C      -0.92332297741850      0.78655823228467      4.32419804196002
  H       2.01636590824391      1.58697854174456      4.18415810447510
  H       1.16731207253666      2.46472227114036      2.86751412682504
  H       2.40220298104574      1.23249653054033      2.45943066425633
  H       1.47003544873092     -0.99521909341764      4.89093398245381
  H       1.91175250623660     -1.58491140591968      3.25086343037814
  H       0.34343956315733     -2.04998423643603      3.96819134871724
  H      -0.46244952805955      0.91712189333660      5.31694550810014
  H      -1.74414555193920      0.05647455768427      4.39830717658282
  H      -1.33694521522641      1.75262300462881      3.99066266152201
  S       3.64098405747717     -0.56982124329318     -1.85225338521114
  C       2.57420945536950     -0.51085285995039     -0.65953792948560
  N       1.74355896171642     -0.47245906091393      0.19775573016261
  N      -2.77301265034268     -2.12908978603146      0.77914440999992
  O      -1.69396793631924     -2.12624451715135      1.47046850375919
  O      -2.85347142584002     -1.22262655888785     -0.09318029174033
  O      -3.62660502315735     -2.94320250718056      0.95523451087299
