33
Coordinates from ORCA job orca
  Bk     -0.00863406419208      1.02749632814681     -0.00709721878793
  N       2.21648734684550      0.19055156745859      0.33036755800293
  C       3.10453647307785      0.14316009848079     -0.67334166546274
  C       4.44136687762053     -0.17470724598122     -0.47683531349602
  C       4.86206220179848     -0.45133562142360      0.82143526819485
  C       3.94177548311957     -0.40054766363025      1.86710539753353
  C       2.61470514666365     -0.07183832241381      1.59726824668243
  C       1.57634286491588      0.03317500271793      2.64798702334427
  C       1.81805767596659     -0.25752861944388      3.98933279172865
  C       0.79145158441739     -0.11261060967378      4.92050987182572
  C      -0.46189396184701      0.32218783682918      4.49665170593949
  C      -0.63781764791312      0.59069423454257      3.14689727116849
  N       0.34911087118518      0.44564538442130      2.24832988304210
  H       2.73804374714739      0.37439667773761     -1.68167791536705
  H       5.13137872219208     -0.19845554927398     -1.32283164359093
  H       5.90682280187403     -0.70093099354708      1.02474420018194
  H       4.27235219072355     -0.60705573921222      2.88551684179681
  H       2.80049293833496     -0.59686453617199      4.31900073300131
  H       0.97445946297286     -0.33664424261315      5.97487703274347
  H      -1.29014198416884      0.45475394212177      5.19581476191222
  H      -1.60507149170350      0.94041366379746      2.76930354595743
  C      -4.98629764968045     -0.43161523690863      0.00386612795094
  C      -3.99694211792734     -1.41143948436554      0.10393315365112
  C      -2.66884323713760     -1.01507277690053      0.12455254983554
  N      -2.30185099756697      0.28009486722878      0.04879652049912
  C      -3.26053192765127      1.22562445448666     -0.04714025338671
  C      -4.61173553186031      0.90958407208923     -0.07140565209203
  H      -6.04295939802981     -0.71329066621746     -0.01604739184407
  H      -4.25143835180919     -2.47197424584197      0.16323920684028
  H      -1.86877693842090     -1.76072700556954      0.20514019008793
  H      -2.92851337892823      2.27008605953598     -0.10353971357292
  H      -5.35568625546348      1.70547533056211     -0.15071780982572
  Br      0.11738854544462      3.56529903903184      0.33806469550551
