29
Coordinates from ORCA job orca
  Pu      0.27224708069806      1.13014137657443      0.51699448051668
  N       0.08107936241136      0.54615211313329      2.48061452176755
  N      -0.01184548245441      0.34023667751625      3.68856546646368
  N      -0.09309703761578      0.14126996018622      4.79155915102991
  C       5.02243648111543     -0.55036733405643     -0.37738313655150
  C       4.69865521004016      0.80458923139412     -0.29164640614026
  C       3.37974966789260      1.15482318618918     -0.05006556501110
  N       2.40801717842236      0.22750407497261      0.10008728276886
  C       2.72273407934996     -1.08274697155629      0.02370965577894
  C       4.01845505775314     -1.50887379768600     -0.21699164095660
  H       6.05486449631104     -0.85960778593947     -0.56570544951994
  H       5.45700711462341      1.58225387436886     -0.40866517672937
  H       3.08867907567803      2.21171524628810      0.02808095250952
  H       1.91167288546600     -1.80611576926979      0.16717075571498
  H       4.23931322573686     -2.57733895388502     -0.27350149804361
  C      -1.94718189942373     -0.60194022194222     -1.43038155608118
  C      -3.43690588659305     -0.49288648938139     -1.66413077268715
  C      -3.65539739386415      1.01396381166427     -1.74764384323177
  C      -2.77840502218968      1.53421093454859     -0.63459737305959
  O      -1.61265073573320      0.60687575698333     -0.63976638469582
  H      -1.36612067895224     -0.54189876881407     -2.36418793568974
  H      -1.64023301397358     -1.48022234827385     -0.84185193702717
  H      -3.99660895329077     -0.92986827001661     -0.82199036028829
  H      -3.73926674852409     -1.02264288926345     -2.57899179959977
  H      -4.70532578935959      1.30454696354720     -1.59780000172584
  H      -3.32982165003595      1.41400977453129     -2.72107921844567
  H      -3.25308992066987      1.44409555532592      0.35543840715010
  H      -2.39131084651472      2.55405651937733     -0.78502518322155
  F       0.41354220875093      3.09883563346429      0.52322293796100
