37
Coordinates from ORCA job orca
  Np      0.18197120712882      0.52605720730741      1.08505096646360
  C       4.50963034693816     -0.89608925637406     -0.25789318030884
  C       3.12052814653040     -0.85455608431153     -0.12016250666868
  N       2.54544143437154      0.11547524764329      0.60781299392324
  C       3.34438438203175      1.03056133116760      1.18459462963081
  C       4.72901074032661      0.97080887619801      1.03022060111837
  N       5.29525096112540      0.00805499106650      0.31316237988101
  H       4.98842314279397     -1.68521222700712     -0.84883490894042
  H       2.46454197658425     -1.58974890484930     -0.59284074646821
  H       2.88393264914708      1.83065654696939      1.78310813150388
  H       5.38241801658535      1.71636972933968      1.49745440396282
  C       0.11582258305266      0.03642245566443      6.09644791650501
  C       0.14777793172339      0.15941461262025      4.66621535499322
  N       0.17264560071309      0.26031731512533      3.50924664524989
  H       0.40304498781063     -0.98745756365012      6.38869268350459
  H      -0.90241060373163      0.24885530277308      6.46351166276833
  H       0.82093384974704      0.75466488264450      6.54757940567878
  C      -3.19320389468735     -5.00654407097866     -1.80748448575188
  C      -1.93942252716436     -4.62717755877649     -2.28207119451171
  C      -1.23710547125569     -3.50272233090565     -1.70418324853184
  C      -1.80287605967454     -2.77794108568225     -0.65709715184196
  C      -3.06411191465729     -3.15537276570288     -0.18530012114847
  C      -3.76029951245913     -4.28142194931345     -0.76557569226528
  C      -1.08370385969032     -1.62487342373320     -0.05061744623353
  O      -1.62138633217967     -0.95857796376757      0.88456612322966
  O       0.06851883945389     -1.29295253991862     -0.45333798784841
  H      -3.72015689762314     -5.85864912316861     -2.24636799963355
  H      -1.46701713332955     -5.17766445769848     -3.10309733147258
  H      -0.25590315365283     -3.22053321969470     -2.09977268869505
  H      -3.53107481123983     -2.59337267322545      0.63094439008014
  H      -4.74431263482804     -4.55351217628880     -0.36832672793639
  C      -1.03959330338251      5.04872262303702     -0.72545665966495
  C      -0.69348531629888      3.75551655313330     -0.20737223299638
  N      -0.41296915965609      2.70894699405388      0.21225388752312
  H      -1.46535423994339      5.66993459214201      0.08053486389327
  H      -1.78439873164217      4.93823531557037     -1.53149808180839
  H      -0.13853341749857      5.54142273505837     -1.12803241558282
