44
Coordinates from ORCA job orca
  Es     -0.56913398879902     -0.74441110768453     -0.86206680696393
  N       0.64159479466623     -2.52953556964413      0.32367397483332
  C       0.02202555950487     -3.66596112138901      0.66650429732546
  C       0.61607885782347     -4.64192557914380      1.45637441769980
  C       1.91440415290916     -4.41741329824455      1.90643044826425
  C       2.56565629933546     -3.24041799863945      1.54686674111941
  C       1.90432013259741     -2.30805299610380      0.74598193213023
  C       2.53068391450810     -1.04354470164625      0.29597118935817
  C       3.86799093752343     -0.73467276751044      0.54361535980869
  C       4.39565798486623      0.46009038013813      0.05995187057713
  C       3.57613953005894      1.31950732372591     -0.66520330407903
  C       2.25406348791218      0.94615161959128     -0.87520741369683
  N       1.74072733725128     -0.19946263512427     -0.40387073196532
  H      -0.99339756577830     -3.80585404968640      0.28076310345657
  H       0.07147484711581     -5.55381268991320      1.70943996046429
  H       2.42182250964473     -5.15509529952611      2.53361967092944
  H       3.58216084608796     -3.05751038255072      1.89669129167891
  H       4.50813242760005     -1.42214701229913      1.09741326349098
  H       5.44438490597873      0.70938596754327      0.24180657386916
  H       3.95165006215531      2.25941889004706     -1.07489131729505
  H       1.57838062638268      1.57538882125689     -1.46302972549086
  S      -0.33269762226256      2.03987539664343     -4.91568944059751
  C      -0.39057134118931      1.11825709172250     -3.64850127830102
  N      -0.43268709909186      0.41413784587226     -2.66446037069016
  C      -1.33505429847165      2.83242242496555      1.78898445709127
  P      -2.48158288808902      1.86333382397597      0.80840580099595
  O      -1.79621526919313      0.52040909608020      0.37522677268050
  C      -2.95468147299804      2.80382677505747     -0.64233914833604
  C      -3.93339496964470      1.50206895584031      1.79011292753448
  H      -0.44458937967040      3.07470526776290      1.18869218540364
  H      -1.03124634498097      2.25729530879297      2.67702762620793
  H      -1.80953549411279      3.77124441924078      2.11526340130331
  H      -3.41236469422893      3.76051266294411     -0.34505203954518
  H      -3.68169682589060      2.22949038746381     -1.23684308417780
  H      -2.06681073916401      3.00498416195253     -1.26209562221108
  H      -4.41668349195978      2.43806769751762      2.11136736701218
  H      -3.64238346680754      0.92346648201589      2.67997031224892
  H      -4.64834494164425      0.91603065274837      1.19312764440834
  C      -1.16897607799568     -2.99035903732081     -3.21772613386548
  O      -1.69822383780320     -2.50089788694987     -1.96727805866403
  H      -1.79087131395074     -2.64700818394266     -4.05627697480681
  H      -1.10949362651796     -4.08767059640029     -3.19792071240462
  H      -0.15996210385174     -2.57047729803953     -3.33412296807535
  H      -2.61330237144731     -2.79873713294094     -1.86497347797892
