40
Coordinates from ORCA job orca
  Lr     -0.13397892222314      0.23878884123412     -0.30241024329218
  N      -0.44150639728593      1.56856915685520      1.79871920325079
  H      -0.23215483487518      0.93963051258425      2.57766216650688
  H      -1.38135637183426      1.92614795892188      1.97729343932037
  H       0.19494356025560      2.36324757821513      1.88986664815139
  F      -0.67257423395094     -0.93940921207915     -1.88710995114217
  C       6.75117056956594      0.25683217645694     -0.01247801281540
  C       6.09548694122469      1.32209304870981     -0.63260517204240
  C       4.70604264308173      1.35108755267385     -0.67301233940472
  C       3.97343997194851      0.30985117350374     -0.08993526000055
  C       4.63252575693631     -0.75817944648588      0.53141782373576
  C       6.02214009822443     -0.78209209950240      0.56899701134784
  C       2.50174069040912      0.33384343076364     -0.13956758385654
  O       1.88037818025656      1.29020359714397     -0.69757737747608
  O       1.82552016879492     -0.61909622776567      0.38083970759576
  H       7.84386441499056      0.23494731107698      0.01644583076664
  H       6.67405608201969      2.13010936676629     -1.08699655524592
  H       4.16793918193465      2.17046805521893     -1.15495850670533
  H       4.03827262174940     -1.56005409207914      0.97527914010255
  H       6.54305620138395     -1.61356135415904      1.05009791295598
  C      -1.77858061942614      4.23495456978401     -2.81994879897533
  C      -1.43924340035589      3.10124687530641     -1.99204521925742
  N      -1.16022110581944      2.19649234819216     -1.33099677410073
  H      -2.75665337037481      4.63964004503370     -2.52016355318677
  H      -1.82296800864936      3.92171493829902     -3.87379873851435
  H      -1.01168008707886      5.01597407180033     -2.70723649978091
  C      -2.82475994637823     -3.23045494846256      1.90913752570429
  P      -2.05695375100622     -2.45862935806050      0.47993980910504
  O      -1.45675696489594     -1.08902447005811      0.90087021132358
  C      -3.29982140574707     -2.24921362664514     -0.79923338933662
  C      -0.79337984025594     -3.55968891264974     -0.16383856288121
  H      -2.06433807828318     -3.38637182699580      2.68887231573899
  H      -3.27134496773637     -4.19863915797915      1.63693559805227
  H      -3.60811656662867     -2.56614820571901      2.30361100973022
  H      -3.74780905731716     -3.21572487931349     -1.07515195116998
  H      -2.78676874302689     -1.80908871592858     -1.66936569338665
  H      -4.08751781106386     -1.56981696646973     -0.44011576268020
  H      -1.21816970448391     -4.54775406111523     -0.39751336646594
  H       0.01386252819273     -3.66920051853750      0.57635614627259
  H      -0.39548542227164     -3.09619452853439     -1.08078218794339
