46
Coordinates from ORCA job orca
  U       0.90746300432709     -0.11858197314995      0.22054592128844
  C       5.14101519672431      1.48132019432999      0.61629150379807
  C       3.98284856260640      0.66010857026365      1.06210660060373
  C       4.00954090637349     -0.05957973993080      2.25750033142858
  C       2.91813746752508     -0.80513638183515      2.73635046284567
  O       1.81604246694448     -0.89535939104916      2.09210526284293
  C       2.98822664077353     -1.52999726374737      4.03509396770886
  O       2.95303004747517      0.66035113289468      0.28319281129323
  H       5.99750539504364      1.40590445548043      1.29679910887143
  H       4.82296244644935      2.53462105235863      0.54456266313457
  H       5.44254649283212      1.17171798510181     -0.39718204033579
  H       4.91498685419411     -0.02193355077816      2.86282774668558
  H       3.96541987535874     -1.43349209275645      4.52289477672391
  H       2.76072065281015     -2.59492307650527      3.86673587584818
  H       2.20272289639741     -1.14173620774535      4.70376803852321
  C      -0.43228386701883      0.00492007717983     -2.89121927191008
  C      -1.76146653894333      0.74585919981974     -2.94330648272871
  C      -1.39485461863142      2.19743838364914     -2.56296098304961
  C       0.10285058834215      2.14891768181683     -2.28534441824300
  O       0.35610643869285      0.76419154746289     -1.95413142948035
  H       0.09595332646417      0.01580098376275     -3.85992546313154
  H      -0.47972054239135     -1.03415049137276     -2.53574612003587
  H      -2.46721757858509      0.31834084595444     -2.21508171438813
  H      -2.22244433416687      0.66622084711013     -3.93781193349093
  H      -1.93723625931175      2.51335499692248     -1.65999384177738
  H      -1.62565840225947      2.91751181027159     -3.36045231594154
  H       0.43028871111278      2.76221890009266     -1.43512291840920
  H       0.71028466969957      2.38997823215130     -3.17362621428637
  Br     -0.20030017116652      2.10091743151824      1.32140221003272
  C      -5.52944310773296     -3.57023286282768      0.46053173053949
  C      -5.09167816323703     -2.31128553423541      0.87829988391033
  C      -3.76520926173103     -1.94435991276102      0.69308231464339
  C      -2.87689217342697     -2.84600625002024      0.08608184700766
  C      -3.31760463924334     -4.11211137873188     -0.33153436429242
  C      -4.64594403116400     -4.46907427681506     -0.14209917523994
  C      -1.48749558350471     -2.44991437988044     -0.10891456526932
  O      -0.69119882935701     -3.29521841912976     -0.66747514048336
  O      -1.07805626406272     -1.30921324404650      0.24461832346780
  H      -6.57423873540730     -3.85624386917837      0.60814536348506
  H      -5.79011222331867     -1.61800899146318      1.35246285779760
  H      -3.39905988835250     -0.96680051273808      1.01651086579184
  H      -2.61255340564876     -4.80242198235592     -0.79955103633915
  H      -4.99851848768156     -5.45185922293077     -0.46340740736720
  O       1.47226475439914     -1.95199534920323     -0.75594774763642
  H       2.28122435305323     -2.38651472223876     -1.05204726822216
  H       0.24184535874428     -2.87714325071410     -0.74342861621380
