30
Coordinates from ORCA job orca
  Ac      0.31677710116933     -0.22005901708955      0.57283047953180
  C      -3.68891555308885      5.74779413247865      0.61918871674223
  C      -2.33526455251228      5.81936212721308      0.95163387860004
  C      -1.55387072399304      4.66686558231471      0.93800936415053
  C      -2.12521546658558      3.44022386637695      0.58909696145508
  C      -3.48014234797780      3.36993912417639      0.25530161086578
  C      -4.26090626545514      4.52300811451224      0.27163189560642
  C      -1.28507959644579      2.20267292075635      0.57292355449623
  O      -1.81613107710328      1.10814614737428      0.22460361890929
  O      -0.07151955848981      2.28150118536164      0.90348162744965
  H      -4.30268929119690      6.65352510846262      0.63054045620183
  H      -1.88860359020976      6.77992891967405      1.22422584811139
  H      -0.49195099200534      4.68658576877610      1.19507977100990
  H      -3.89582234682765      2.39532833958990     -0.01184630167403
  H      -5.32234170162882      4.46889102584411      0.01356173894039
  C       1.12982541784978     -3.70784309770719     -2.47782307304244
  C       0.19273330331969     -2.83925021811454     -1.80433835839344
  N      -0.51611516567817     -2.11882232937327     -1.23878386154266
  H       1.46385697290800     -3.20638281734423     -3.39887000597344
  H       0.67507760826018     -4.68515133004070     -2.69288523376782
  H       1.98817318467208     -3.81528122637869     -1.79442107160517
  S       3.14047720394255     -0.34133478167481      1.92554371451665
  C       2.88035651828701     -1.58810080207097      0.87641351021427
  N       2.51031172179312     -2.39517307778978      0.09986173112806
  S      -1.11442788800323     -2.53626363619044      2.22303245078251
  C      -0.89479781088143     -1.10769272209320      3.01562462776874
  N      -0.63211455177033     -0.00921469068966      3.36005343368893
  N       1.22369177057711      0.36148186038113     -1.64712221555518
  N       1.46099557111983     -0.18568138691978     -2.67782690521085
  N       1.68283210595460     -0.71980308981544     -3.67522196340470
