30
Coordinates from ORCA job orca
  Bk     -1.01090466943647     -1.44371461201343     -0.10750858869938
  O      -0.58776343983057     -1.12690307339825     -2.38724041844817
  S       0.44854375954522     -2.30805635886678     -2.52134920050102
  O       1.81703446298910     -1.67271105585068     -2.28077587430441
  O       0.10726719979406     -3.08442458642687     -1.15877313156523
  C      -3.95512516007301     -1.12118331761127     -0.80426583060833
  N      -3.43813731449332     -2.01820666913381     -0.25240638533235
  O       1.19382232520644     -0.36321030458141     -0.21369646021025
  H       1.68577737087873     -0.73606044729160      0.52762146721125
  H       1.57790457533629     -0.82397330701297     -1.06379141740706
  C       0.29307962762751      4.25112048235431     -3.51709354908088
  C      -1.06644090467358      4.17265347330998     -3.82308938146517
  C      -1.86821870234924      3.23460572436076     -3.17910889833008
  C      -1.31164260639926      2.38864997054377     -2.21557742949164
  C       0.05211651314001      2.45950535122083     -1.91216981084797
  C       0.85060407174192      3.39098773920717     -2.57010085952683
  C      -2.14062817199617      1.38041802688712     -1.50627399987536
  O      -1.71203828972136      0.82590040507054     -0.49077631321786
  O      -3.30790721358407      1.15080072405580     -2.01354082475736
  H       0.92533191000985      4.98274033565739     -4.02924651989803
  H      -1.49987125180138      4.84035771774054     -4.57311157424164
  H      -2.93111099371950      3.14028782875531     -3.41321353258648
  H       0.47222236206639      1.75776355637578     -1.18412168305424
  H       1.92005918146645      3.43974376636618     -2.34795871090516
  H      -3.73750977910449      0.30944478990545     -1.54143757286926
  C       0.11094079987994     -1.71656492327203      3.16091512540994
  O      -0.50120531186994     -1.63794971454702      1.94622754429856
  H       0.54872976326932     -2.72102634768065      3.36179824582996
  H      -0.58246591719027     -1.50964734685227      4.00764347873716
  H       0.95003580329186     -0.98904782727241      3.27702210573820
