42
Coordinates from ORCA job orca
  Ac     -0.30486556827057      0.06965008741291      0.47521189791147
  Cl     -0.77557950774185      1.04322733708058      2.96860587665313
  C      -4.32405287984619     -2.16833203796218      2.32740506497671
  C      -3.21495765468151     -1.35760854536748      2.08061436836814
  N      -2.58206377904813     -1.40446670774807      0.90103521294150
  C      -3.05384488487464     -2.25559487172763     -0.01918676245334
  C      -4.16615780160070     -3.05279786207037      0.24648920600880
  N      -4.79685642425376     -3.00880298819108      1.41485351863405
  H      -4.83467454494992     -2.12693779272595      3.29542279864275
  H      -2.82451717272540     -0.66228889520112      2.83209191597130
  H      -2.53304753703162     -2.30412907427130     -0.98107954641573
  H      -4.54687519109251     -3.74488905453096     -0.51236912904560
  C      -2.27983492575162      2.73338686246272     -0.83386212309706
  C      -2.61926360023813      3.43460900964382     -2.13531162903845
  C      -2.42214533528324      2.32664250765609     -3.16435685471473
  C      -1.18233010965754      1.63231991609205     -2.64262990185563
  O      -1.30013734695147      1.72218953418720     -1.19775472924589
  H      -3.15613002527737      2.22076619145674     -0.40056999674460
  H      -1.83741209722340      3.39076595060869     -0.06991880029151
  H      -1.91767713614369      4.26382712392179     -2.32042773903699
  H      -3.63683976289014      3.85013942127050     -2.12706268571274
  H      -2.28926160137621      2.70248078782215     -4.18877081750170
  H      -3.28054159778847      1.63461864495522     -3.16608216115916
  H      -0.25964838109371      2.15610257011600     -2.94569786000699
  H      -1.10002928017982      0.56840507244380     -2.91293568253325
  C       4.74889364856728      0.56976393598614      0.60852106664447
  P       3.43259398067114     -0.59980469804532      0.26104893820716
  O       2.06696234133452      0.14029926480702      0.23870710802191
  C       3.44248635723428     -1.87743451622482      1.52168660078709
  C       3.75621811502339     -1.37430308920807     -1.32649084163032
  H       5.72637181135824      0.06452843058203      0.62784454009536
  H       4.56313688130178      1.04231182854142      1.58506483605368
  H       4.75638469253695      1.35011822255259     -0.16724582596819
  H       4.41331814272647     -2.39566918352474      1.54260460356280
  H       2.64175781655220     -2.59785226215246      1.28913219640058
  H       3.25332179211952     -1.42328444501303      2.50689585539939
  H       4.73341805841352     -1.88098874715665     -1.31682387040492
  H       3.75395315035157     -0.60640390138648     -2.11490122605870
  H       2.96588729803635     -2.11212321651438     -1.53851989680621
  N       0.38133022894758     -2.44101432925717     -1.13914178493480
  O      -0.32463671002192     -1.53322661362164     -1.62918038081032
  O       0.49414654081880     -2.37129986769859      0.10538464018660
