65
Coordinates from ORCA job orca
  Fm      0.15769269478674      0.00445783200165      0.14309200509816
  N       0.63823559311194     -2.07052363224011     -1.34600557647280
  C       0.14851281770832     -2.19066468501267     -2.58012188599800
  C       0.04470191742284     -3.40600209158544     -3.24801026205939
  C       0.46204484338354     -4.55194657967636     -2.57947003129151
  C       0.99425542577754     -4.42908110852235     -1.30120927486772
  C       1.08326302303353     -3.16446249083992     -0.70815304337667
  C       1.73611865074272     -2.96331255285147      0.61028499204533
  C       2.17009235756979     -4.04295172776531      1.38581324241419
  C       2.86371466141097     -3.80568630779854      2.56662425229171
  C       3.12229934186294     -2.49224773112744      2.94129048685684
  C       2.63172727253185     -1.47596624793625      2.12897943854681
  N       1.94720727445437     -1.69476519568785      1.00509465840720
  H      -0.19815987330245     -1.26830182832919     -3.05842866972323
  H      -0.36266838580385     -3.44646126789862     -4.26012611447564
  H       0.38754107621610     -5.53463805119236     -3.05177407841960
  H       1.35097256713663     -5.31803714384880     -0.78151878504608
  H       1.96531867442697     -5.06881503548295      1.08017487436934
  H       3.20069050449036     -4.64183104169676      3.18420417171474
  H       3.67325947090669     -2.25149618655527      3.85236989798092
  H       2.78152811680093     -0.42930710278326      2.41018536099033
  N      -0.06748809953512      1.94604923519972     -1.59445659693021
  C       0.79453028224558      2.96187425900437     -1.60166100530501
  C       0.58573037583604      4.14298926792869     -2.30404696759774
  C      -0.58919104183627      4.26230424890671     -3.03985703624249
  C      -1.49873485186099      3.21288749575487     -3.02591554945415
  C      -1.21561417610356      2.06205178524888     -2.28028159772516
  C      -2.16773922620245      0.92948017990958     -2.18950726324884
  C      -3.41984012380048      0.95900275532676     -2.80651252092734
  C      -4.28398934785117     -0.12161170093879     -2.64876065765321
  C      -3.87622362517596     -1.20243128417288     -1.87947428139954
  C      -2.60880563942287     -1.16181449620854     -1.30513537404871
  N      -1.77849338394489     -0.12961688490453     -1.45919331548585
  H       1.69902735276555      2.83671664890238     -0.99834803522715
  H       1.32590585530322      4.94487546707667     -2.26971114322496
  H      -0.80089606563935      5.16696235417676     -3.61529146606239
  H      -2.42688280723876      3.29699793712210     -3.59097201356288
  H      -3.73617485059609      1.82012109796010     -3.39520677718560
  H      -5.27254008245521     -0.10465766588372     -3.11457695184819
  H      -4.52541198703547     -2.05953329607713     -1.69331317227434
  H      -2.25395788517021     -1.96321497188747     -0.65260738830555
  O      -1.32688726096395      1.56556180209732      0.83164889466960
  S      -2.52006157933637      1.63578840535591      1.81128844162254
  O      -3.30995414112070      0.16805555887773      1.36122523922015
  O      -2.00252032111320      1.39407745472290      3.18013996719729
  F      -3.77515240389281     -2.18265229796308      1.11704069960970
  P      -3.46982916272783     -1.15590001349677      2.32784596150826
  F      -5.01038934156813     -0.94151060597693      2.73227675602104
  F      -0.88615878133106     -1.63428186338956      0.93807173851488
  C      -0.01548054027710     -0.37523691350673      2.93879035488357
  O      -0.14836845545990     -0.93796034902373      3.90718016568651
  N       2.29726879432625      0.20410024921053     -1.37861993785635
  H       2.92097659248794     -0.55217666505570     -1.09210904816825
  H       2.87337428559528      1.03360103411877     -1.52480414172857
  H       1.95542724636386     -0.05520224291439     -2.30497124632806
  C       1.83789409669802      3.46121344493262      3.07906063049914
  C       1.11733206655927      2.48794409678728      2.37973421681531
  N       1.70974503657046      1.72837151146917      1.45227857359419
  C       3.01583808512038      1.93628414464699      1.25105576808632
  C       3.72096238751852      2.90735360464669      1.95801434974684
  N       3.13004424162724      3.67552439128218      2.86747249126729
  H       1.33575609928867      4.07689282006704      3.83306919334787
  H       0.05589182535114      2.31207436661915      2.57843825468029
  H       3.52615325156904      1.30461357559971      0.51872949404228
  H       4.79117928176493      3.06067223527765      1.77897663779257
