44
Coordinates from ORCA job orca
  Cm     -0.25044922828480     -0.24258003736692     -0.27691186422660
  C       4.10799384502193     -3.08982711478416     -0.24731384935775
  C       2.87158603598937     -2.34954745044780     -0.11042376099903
  N       1.88721494286685     -1.75568111077909     -0.01409908863819
  H       4.79218995906427     -2.83634026940131      0.57533982613940
  H       4.58581544993294     -2.83505015508866     -1.20466406427050
  H       3.90279766710687     -4.16998383887100     -0.22532830495755
  C       1.75727262157131      2.32465435841638     -3.07357849681231
  C       1.49228360168658      0.93876448590821     -2.76998892485035
  N       1.22566303306785     -0.15601535042090     -2.49537538713152
  H       0.95969611800506      2.90406762460061     -2.56367959693130
  H       1.72850097925378      2.49190752480954     -4.15985895847862
  H       2.73611543152427      2.61626220613793     -2.66787352705002
  C       0.18706941943512     -1.34816679970169      4.37564709343723
  C      -0.08367170584273     -1.33470387073233      3.00749992685431
  N       0.38898229298975     -0.36056427230565      2.23105456800018
  C       1.12103846258061      0.59708048591682      2.80187215786441
  C       1.38343412336238      0.56306687459473      4.17152483070643
  N       0.92069533167638     -0.40448889605600      4.95698249565356
  H      -0.20706040771036     -2.14848438736313      5.01196561073642
  H      -0.69073603274434     -2.10260108168813      2.51732695973929
  H       1.48277555353809      1.38870252758143      2.13409030691180
  H       1.98614918477215      1.34981560572816      4.63877723833317
  O      -0.70503070229544      2.97577174895327     -1.34126641594390
  S      -0.27199846976060      2.70723105484593      0.11441132673864
  O      -1.28848987655448      1.60583602782243      0.63331735130033
  O       1.02312979345805      1.80283950988905     -0.02041107521615
  C      -3.83167351610690     -1.70180783420779      1.15274312435190
  C      -2.66594632892555     -2.55159631782103      0.67548057649165
  O      -1.61064562492515     -1.78601293742341      0.22900714131369
  H      -4.66480722556443     -2.32456851224151      1.51816308307696
  H      -4.20582065675506     -1.06828949103398      0.33277874410949
  H      -3.51223079439855     -1.02989213432609      1.96612106735480
  H      -3.01788256046052     -3.23873072549147     -0.12377298591465
  H      -2.34718099834178     -3.21934311842696      1.51048295347092
  C      -3.65875135923077      1.57738075022578     -3.03888324061595
  C      -3.03494442226740      0.70341719245481     -1.97391532393405
  O      -1.62042541103896      0.71194463802753     -2.07333660448018
  H      -4.75778275869076      1.55425695940018     -2.96876836314915
  H      -3.36494116897314      1.23808621896586     -4.04471826441699
  H      -3.32942367657014      2.62160372389872     -2.91489404305476
  H      -3.36066129404448     -0.34433748371403     -2.08250518149748
  H      -3.33470034400190      1.04476244479558     -0.96528641370995
  H      -1.30994928341525      1.67556122672022     -1.91313264694769
