70
Coordinates from ORCA job orca
  Cm     -0.11046061232495      0.18909779613574     -0.08488845703032
  C      -5.60867163078761     -3.60535809369360      2.45417578149944
  C      -4.31585125552483     -3.86612738253011      2.91177490904680
  C      -3.25017276376744     -3.08466345998753      2.46989780022821
  C      -3.47255301447651     -2.03817164039593      1.57217152938467
  C      -4.76769586153439     -1.77836376748412      1.11648998877897
  C      -5.83336256161642     -2.56070411957729      1.55559381157376
  C      -2.32358991323187     -1.19948593507114      1.07666676145854
  O      -2.57586199213256     -0.25081157465337      0.30227353554129
  O      -1.15700228714937     -1.50672163832424      1.44274470345775
  H      -6.44587543215627     -4.21995283114709      2.79922718240343
  H      -4.14088750847218     -4.68460920143694      3.61675520252557
  H      -2.22361641778833     -3.25873228190393      2.80326054421721
  H      -4.89976551031391     -0.95329115174151      0.41120701615701
  H      -6.84704662895349     -2.35774953890896      1.19664857301457
  C      -1.09866680783568      3.58627086723873      2.99052159460862
  C      -0.27520916970899      2.45348797196567      2.42022507248148
  C       1.04091680225186      2.27439443464385      2.89411608783105
  C       1.90014000736014      1.24788194605667      2.46178658437398
  O       1.61736419792364      0.35680132609373      1.62265284487074
  C       3.30038518046004      1.19506218542257      3.03217814294551
  O      -0.84400848635469      1.74867244547508      1.55445301433150
  H      -0.58260108159924      4.14429566893453      3.78491580381823
  H      -2.04447686357616      3.17615074750196      3.37871496672821
  H      -1.36150138074497      4.27447135670266      2.17093933448183
  H       1.41363446784336      2.97203498188167      3.64701280407989
  H       3.47172743488458      1.92318650927152      3.83806535064465
  H       4.01409549490702      1.39044769689517      2.21387226780777
  H       3.50215738471660      0.17745821941951      3.40328056656596
  C      -2.84269724998035      2.34539170592474     -3.21627816096951
  C      -2.12135176837959      1.15505910839910     -2.62596196978087
  C      -2.48183822051363     -0.13694239110089     -3.06012219880606
  C      -1.87241115776909     -1.31730334078692     -2.59684499781561
  O      -0.93912397970578     -1.38372461671834     -1.75796806598387
  C      -2.37200440809908     -2.64105714714106     -3.13214650267785
  O      -1.23649602059053      1.41875760436114     -1.77941041927725
  H      -3.58527708331238      2.07170121205224     -3.97933999927613
  H      -2.09917418923507      3.03216843317194     -3.65142813993077
  H      -3.34014494889570      2.89141572315407     -2.39841479378955
  H      -3.27632586311477     -0.22624959219448     -3.80397645512837
  H      -3.11742214969304     -2.53441768196833     -3.93322008004990
  H      -2.82038541586314     -3.20458289758356     -2.29657317330181
  H      -1.51617719674906     -3.23038385845820     -3.49861074784613
  C       5.75424197406521      3.65048001191997     -2.20907741622856
  C       5.44375902896615      2.41923261180255     -2.78914838670640
  C       4.25305228555691      1.77406705213182     -2.46027738759906
  C       3.36370115327030      2.36080332926270     -1.55702278822609
  C       3.67533813516141      3.59509969068609     -0.98073255122402
  C       4.86935186456553      4.23657943328467     -1.30213263506989
  C       2.08168212420972      1.66592733351090     -1.17788029976227
  O       1.27111677963232      2.27967413899356     -0.45045223839324
  O       1.89898100674799      0.48457105124067     -1.57923378888159
  H       6.69136709265712      4.15508563535740     -2.46383972776184
  H       6.13750224650634      1.96083621357431     -3.50054883715180
  H       3.97966313078612      0.80645424545301     -2.88958007868114
  H       2.95549160873260      4.02003843028674     -0.27581444969790
  H       5.11428282675101      5.19995103492690     -0.84429175162067
  C       0.75479837996327     -3.25958438028780     -0.03897716383697
  C       1.89126137991937     -4.14603634266202     -0.51743925024517
  C       3.09679567298947     -3.44134295704429      0.09583620711806
  C       2.72341140118628     -1.97504780191236     -0.07704748779501
  O       1.29886030760353     -1.94742368394571     -0.05390011602776
  H       0.43575484476769     -3.51202449274365      0.98867593053118
  H      -0.13138953764434     -3.25661222614008     -0.68945406567505
  H       1.95444595393194     -4.12068215399327     -1.61911761451727
  H       1.77886814925159     -5.19518871779458     -0.20191539268639
  H       4.05420484918147     -3.69333551052442     -0.38665611860940
  H       3.17803762674095     -3.69800060701778      1.16626128543163
  H       3.06099556917223     -1.56144169368438     -1.04200787624325
  H       3.08941000693165     -1.31548344257571      0.72453638636718
