38
Coordinates from ORCA job orca
  U      -0.35062626213758     -0.66853165008809      0.13415934429891
  C       2.71976880545452     -1.67902540357826     -0.82190657789661
  C       2.80626643725314     -1.16911388995329      0.61865339794067
  O       3.85268937251400     -1.14736674433806      1.22075480977981
  O       1.65100674109043     -0.74878116301578      1.06464957186961
  N       1.35863370563979     -2.07177338521025     -1.13570723508426
  H       3.47472156009253     -2.46927271025997     -0.97270159281022
  H       2.99157103724793     -0.82297936989655     -1.46164090852483
  H       1.11543143516859     -3.00762312522739     -0.80772356679746
  H       1.11034877129634     -1.99090722484121     -2.12065667497305
  N      -0.46568007649785      1.50253084825404      1.22036652145383
  C       0.05405156576958      1.56197724206963      2.45861892951710
  C       0.19806989949633      2.73142397111197      3.17189995195711
  C      -0.21923054818524      3.92440278747900      2.54040400643322
  C      -0.76693210618915      3.88619289059966      1.28400139918341
  C      -0.92072764748324      2.63974090386761      0.59926603785171
  C      -1.53699144971514      2.53010835261746     -0.66159088392968
  C      -2.11262199829614      3.58958590975430     -1.41264688925563
  C      -3.09614178440784      3.32464743538277     -2.33219248226195
  C      -3.62345257183481      1.98933237768804     -2.37065458467345
  C      -2.98516774921106      0.96971896807784     -1.74931640993963
  N      -1.67301508639433      1.21279332978517     -1.21703156672249
  H       0.38527312506196      0.60494087700078      2.87788413025710
  H       0.62958024969097      2.72300190734126      4.17359677795890
  H      -0.11687173019372      4.88394454175025      3.05721120251496
  H      -1.11791983042390      4.80175729094078      0.80567546182451
  H      -1.81149919383670      4.62265516709756     -1.21105083229613
  H      -3.54750198729817      4.12087702297487     -2.92746157415946
  H      -4.59654702198990      1.79628835730151     -2.83305785877212
  H      -3.35573361912506     -0.05163850550104     -1.64612893959552
  O      -1.40150531508677     -1.51653175816035      2.08386786365692
  S      -2.09377506519051     -2.51705361068245      1.07479933180215
  O      -0.80645573596811     -3.03888999670358      0.32512246192732
  O      -2.61206468886108     -1.48263590026688      0.00971347533924
  O       0.77803068088056      0.88594465272563     -1.46390760561439
  S      -0.41501982414982      0.74619650250834     -2.38425615724048
  O      -0.74092053877446     -0.72417066933859     -2.42536587357273
  O      -0.36324155540606      1.44943377073319     -3.64854646144635
