50
Coordinates from ORCA job orca
  Lr     -0.36653287515793      0.95702879039147      0.88435964785816
  C       3.71654499535319      0.08032708110171     -1.07203798611159
  P       2.17553306426415     -0.82612250659235     -1.07610306155730
  O       1.12315787273484     -0.06808354637134     -0.15462476546094
  C       2.43811120870498     -2.47205571040299     -0.42815521782975
  C       1.53249584968916     -0.92526352227528     -2.74204808283742
  H       3.56173082534737      1.09314537187865     -1.47450266513565
  H       4.45204140542184     -0.44093391419793     -1.70681168323288
  H       4.11790199391982      0.14316422295654     -0.04893160858154
  H       3.16954889840108     -3.00331922367395     -1.05947132145944
  H       1.49426363259016     -3.03847500564779     -0.43497537627811
  H       2.83563522321632     -2.41821643143617      0.59701043022019
  H       2.25500915488218     -1.45352079329726     -3.38589146956683
  H       1.37485378751642      0.08528618574948     -3.14950722652898
  H       0.58247773468409     -1.48150136600989     -2.75036111248303
  C       0.53758095051841     -0.52401194751093      4.43773020501312
  P       0.24789446443436      1.09101007317795      3.64479557341552
  C      -1.11508336174854      1.85892895061329      4.58094872066978
  C       1.72532904544517      2.09168075550248      4.01237215229952
  H       0.76587247140623     -0.37255267159787      5.50594324956458
  H       1.38922838437949     -1.04191785916978      3.97037516124112
  H      -0.35918181900254     -1.15821776929002      4.36495852513011
  H      -0.84599414616411      1.91019875515433      5.64916082280369
  H      -2.03761550981294      1.26545155123894      4.48415110213123
  H      -1.30772432524600      2.88197488258110      4.22240942338860
  H       1.88258172974803      2.12821479584208      5.10314356227226
  H       1.59639876560599      3.12092521960502      3.64460907078804
  H       2.61984681085435      1.65210018411058      3.54497477304055
  C       0.60456369892316      5.74970876256430      0.12024084152298
  C       0.30590283401929      4.35912907950487      0.32653270403694
  N       0.05974903706214      3.23706538052797      0.49393700662397
  H      -0.04373200691974      6.37020278703580      0.76171058969354
  H       0.42991473035086      6.01540255902514     -0.93607391538043
  H       1.65996993537554      5.94702994797653      0.37228494293527
  C      -4.72290755687385     -1.26464907136025     -1.40044031523835
  O      -3.52652754294955     -0.67665756163031     -0.81797515437685
  P      -3.48835339480623     -0.01731406486954      0.63040621452539
  O      -1.97777273497212     -0.65713609656313      1.18310833975496
  C      -1.97216755976046     -2.03887106080203      1.61875784611861
  O      -2.55625229481419      1.39074559966967      0.27567655184114
  C      -3.27615373962217      2.48419092073600     -0.35264381282469
  H      -4.50112200831720     -2.31482041863474     -1.62615279537845
  H      -4.94426260034903     -0.71973825962112     -2.32624220088215
  H      -5.57379893099411     -1.19650578766363     -0.70590438814580
  H      -0.98408919204310     -2.24802146691398      2.04915767329361
  H      -2.15114450892550     -2.69812397068263      0.75732026083465
  H      -2.74495336400424     -2.19140508193739      2.38751176208673
  H      -2.63088032680864      3.36910795278088     -0.31084609040343
  H      -4.20396392045391      2.68387556718496      0.20457759964779
  H      -3.49842478510261      2.22613973124235     -1.39766450305862
