26
Coordinates from ORCA job orca
  Bk      0.43937070698342      0.62151196937948     -0.62087102281281
  C       2.49087042901570     -2.62730311511035      5.41773447172307
  C       3.23260045928928     -1.55725879956971      4.91315845843185
  C       2.85757409637333     -0.95256064257760      3.71478542941686
  C       1.73960844005697     -1.41422166202215      3.01643921204008
  C       0.99797909548950     -2.48339565001897      3.52376869014304
  C       1.37230894698571     -3.08937096592154      4.72133703777232
  C       1.32509757571798     -0.75255832469013      1.72375552577191
  O       2.01365674649751      0.20725087496112      1.30291304318490
  O       0.30021748360015     -1.18672670709719      1.14450719281257
  H       2.78435502111948     -3.10201943517345      6.35981100963800
  H       4.10720107220100     -1.19221692009376      5.46115826261267
  H       3.40682141710031     -0.11004501699243      3.28572712870413
  H       0.12709692035837     -2.80988280299728      2.94909549336025
  H       0.78839811237082     -3.92612262583608      5.11791212586591
  S      -4.37945705872922      1.67702209858785      1.13752217330050
  C      -2.88024199294928      1.36822879699669      0.59022445855344
  N      -1.78908315187437      1.14248560611186      0.19419694634858
  C      -1.15144348056024     -1.57268322846634     -1.35751777924621
  O      -1.82240117381751     -2.47175313442671     -1.51151987369883
  O       0.22991714623955     -1.57744180174419     -3.70008014248412
  S       1.03734045320647     -0.36650953576438     -3.34723980615786
  O       1.75700115728295     -0.65832990098636     -1.94245710063785
  O       0.01326069094118      0.75166310379164     -2.82376025234473
  C       1.40655843218024      2.96220480949284     -0.43710494730749
  N       1.87079245492037      4.02983301016739     -0.32289573499058
