52
Coordinates from ORCA job orca
  Ac      0.57454221836710     -0.27821031762465      0.24987208087112
  C       1.56925040111475     -4.66776240242472     -1.32890274175546
  C       1.92641490650896     -3.25293141756649     -0.99877808650164
  C       3.25839077949325     -2.81501330303292     -1.13422993753297
  C       3.71560090134075     -1.53186032245397     -0.79930945784099
  O       2.96713365929528     -0.59832399951589     -0.34791598801846
  C       5.16787710696427     -1.20044354582295     -0.95594085806438
  O       0.98060273212767     -2.50286102366396     -0.60050456177508
  H       2.41638888419394     -5.24530353439215     -1.71915104247814
  H       0.74481091020403     -4.67496133069145     -2.05923665501180
  H       1.18571182404938     -5.15553882886959     -0.41788188552900
  H       3.99364895528407     -3.53405745760854     -1.49620973984781
  H       5.27380834193130     -0.30088462470298     -1.58348632625189
  H       5.74981884063105     -2.02043648208459     -1.39452903262236
  H       5.58729784164991     -0.95313073819997      0.03323066851836
  C      -2.77528577412984      0.47598312155144      6.39594954089919
  C      -2.91011179177695     -0.71963011262923      5.68592179890817
  C      -2.09611460524169     -0.96947769122064      4.58426327473767
  C      -1.14548163934463     -0.01872923974755      4.19238852732962
  C      -1.00498493009991      1.17424220088104      4.91143336999040
  C      -1.82248139673333      1.42139200734031      6.01073348778049
  C      -0.32461818269965     -0.24978186745355      2.97689861132961
  O       0.52394219956293      0.62093200784476      2.61591372155447
  O      -0.53923528658050     -1.27610114135999      2.26199991860767
  H      -3.41328842339386      0.66879719058751      7.26273973914450
  H      -3.64929469697843     -1.46093240901006      6.00023111001421
  H      -2.17871355208519     -1.89672669562181      4.01166751900428
  H      -0.24874483632423      1.89496471603385      4.59100110948031
  H      -1.71512561215835      2.35050787761614      6.57638737150965
  C      -0.70640477507070      0.68879907779591     -5.01731267818279
  C       0.30379870001388     -0.17504829967737     -4.60033870500367
  C       0.49580710295618     -0.36112022225148     -3.23601835915633
  N      -0.24982571499404      0.25624106366054     -2.30952857840005
  C      -1.22095860766784      1.08494731830147     -2.71298342145386
  C      -1.48412020780391      1.33056367581905     -4.05592173317782
  H      -0.88677050444253      0.85963010007470     -6.08188290987309
  H       0.93660482117835     -0.70066885333376     -5.31829557422511
  H       1.27841523990389     -1.03779660853998     -2.87034862990295
  H      -1.80992357515686      1.56419513055538     -1.92444181319767
  H      -2.28699204739948      2.01434051248937     -4.33889067269523
  C       2.37968049693538      2.84519912212531      1.20557301309976
  O       2.14968667715316      1.78919632926229      0.28475216807514
  H       3.04583438289710      3.60435692492597      0.76716678143204
  H       2.80396267580450      2.46838015886201      2.14931561081543
  H       1.40997725710488      3.31058487599517      1.42532084014541
  H       2.97088428115935      1.31006024405892      0.06458193475212
  C      -3.86809724084272      1.47724343816142      2.26986522052314
  C      -2.80082073787264      1.20226835995002      1.33381961740646
  N      -1.93560544768715      0.97009086679493      0.60059251612655
  H      -3.98947365337239      2.56370171175230      2.39158849843906
  H      -3.61406141848375      1.02753706656372      3.24397837708050
  H      -4.80975747948473      1.04377737049685      1.90185296092297
