58
Coordinates from ORCA job orca
  Bk     -0.03335357307897     -0.31193942330036      0.33914577416728
  C      -0.63937371473847      4.35373624360968      5.49695770688939
  C       0.15416396011827      4.65979157552826      4.38955773181202
  C       0.28329176456880      3.74019082795207      3.35481115784745
  C      -0.38477551343191      2.51119867723541      3.43057577817421
  C      -1.18112985605375      2.20635754747103      4.54211712140220
  C      -1.30633889697057      3.12952875122119      5.57414117541240
  C      -0.25356982015878      1.53530881990902      2.33456780365111
  O       0.43105080232326      1.81605786178723      1.29616773951676
  O      -0.83390328221334      0.40453336782681      2.40874895113168
  H      -0.73924284622933      5.07810762928072      6.30974250282132
  H       0.67390963634561      5.61960987253395      4.33781355611713
  H       0.90164755032336      3.95465281414637      2.48002265281615
  H      -1.69713593807916      1.24393747828677      4.57671928816312
  H      -1.92683725550365      2.89825806517324      6.44336417623545
  S      -0.10179089685797     -4.32937156054758     -2.27377660744703
  C      -0.56696680304305     -3.06478614964814     -1.42215978948040
  N      -0.90172675951493     -2.09702826760031     -0.79913510507595
  C       1.29130848564941      2.10047933171922     -1.76622830646777
  C       0.37313117932459      2.86413604775601     -2.72194143200199
  C      -0.43748420717221      1.76785928432933     -3.44328318194033
  C       0.18450805414212      0.46730703995057     -2.95682898122230
  O       0.71123798083255      0.78829080900385     -1.65863690249097
  H       1.35190796792567      2.51900448877004     -0.75228629709195
  H       2.31063333501553      1.99033449353377     -2.17588428337000
  H       0.96095562959036      3.47777643498873     -3.41953592129371
  H      -0.29136659223858      3.54637193597714     -2.17184134887343
  H      -0.38834915809281      1.85022113912338     -4.53831011969376
  H      -1.49931367128045      1.81416421247883     -3.15688738341216
  H       1.02133644130759      0.14140847058451     -3.60076165847231
  H      -0.51697771317151     -0.37140677155840     -2.83811238877076
  C       2.17571844938714     -5.03618293553102      0.65390048182552
  O       1.60269023012621     -3.74693713272413      0.87040874435646
  P       2.48182023270203     -2.43382007712351      1.20139421062895
  O       1.28649958263195     -1.58103329930556      2.01742857348451
  C       1.01607068596308     -1.92643132124413      3.38345030770097
  O       2.13921431841248     -1.44869561023858     -0.12863587659587
  C       2.77457956877582     -1.76631498747754     -1.37095041728952
  H       1.68335109741912     -5.74879977774569      1.32924893864981
  H       3.26085190810382     -5.03541557767652      0.85150638864089
  H       1.97863952726797     -5.32758609587964     -0.38756056817852
  H       0.28525899746016     -1.19451992528842      3.74858694777831
  H       1.94091035071410     -1.86390258340962      3.97754577286503
  H       0.59441808439449     -2.94134375959165      3.43693935098684
  H       2.76694215449731     -0.85493048057755     -1.98220126643901
  H       2.22492319178917     -2.57286152573150     -1.88358740886031
  H       3.82049474284913     -2.06847151412562     -1.19657434375015
  C      -4.48730908522109      2.06253222979630     -1.28670031719715
  C      -3.46442430949944      2.79594493244014     -0.68796500908031
  C      -2.31494048757781      2.12945914844717     -0.28276716966559
  N      -2.15099087131447      0.80691807518186     -0.44395089633199
  C      -3.13773475377803      0.10114812249862     -1.01704180187246
  C      -4.32008395223277      0.69043454551956     -1.45266407233780
  H      -5.40572484871871      2.55536640657054     -1.61672063187925
  H      -3.55276500920646      3.87295025892392     -0.53047641560030
  H      -1.48778338128176      2.66840914447121      0.19098822335928
  H      -2.95695275949628     -0.97305751917913     -1.12811056843748
  H      -5.09501995380473      0.07355021147791     -1.91233458581393
