42
Coordinates from ORCA job orca
  Fm      0.02935356289359     -0.15582720300170     -1.20156961540465
  O       1.04677525535553      1.09471210470869     -2.96155564518652
  H       1.62418940246031      1.86544449472831     -3.06295547484973
  H       1.04564576029995      0.62372960083057     -3.81202147380900
  Br     -0.33429832967639     -1.94950282436883     -3.04583402143112
  C      -2.08588531434473      2.33390810886316     -2.41738658357162
  O      -1.75128257248202      1.31018115885599     -1.46407468759614
  H      -2.47069756547677      3.22142028748589     -1.89507988435056
  H      -2.83021689673482      1.95838759951079     -3.13415065281334
  H      -1.16640433289056      2.59432651508306     -2.95447902251015
  H      -2.55349366146032      1.00147166219952     -1.00068018695263
  C      -4.11794819581679     -4.73381686468309      2.34501740436246
  C      -4.98323540186640     -3.64804980942866      2.17715029149923
  C      -4.52752932213372     -2.49422027369062      1.55913869510512
  C      -3.19440751596107     -2.42064575173922      1.10755555930410
  C      -2.32577545641682     -3.51163137892945      1.29614087886920
  C      -2.79297414903427     -4.66570170952791      1.90699618271083
  C      -2.68741027636424     -1.24820024951932      0.42735853080779
  O      -1.48285466247784     -1.04171853874812      0.19928065684311
  O      -3.52088750519453     -0.31479654437504     -0.00786575052752
  H      -4.48374613298369     -5.64470082804299      2.82645620995884
  H      -6.01321570213276     -3.70591154049702      2.53586568824614
  H      -5.21983406267833     -1.64866343966738      1.47143374138053
  H      -1.29589358001483     -3.44604951115925      0.93890023838473
  H      -2.12807393890797     -5.52172763001768      2.04166268705470
  H      -4.45369549692935     -0.55621517875406      0.11930367397844
  C       3.36737650202275     -1.18915555448827      2.93100176384147
  O       2.44565544739879     -0.91458689125153      1.85844496335767
  P       2.85438389596382     -0.06110268659267      0.56207192264380
  O       2.15576362401608     -1.02591588342443     -0.64681078412514
  C       2.89735558132682     -2.18257148040173     -1.10328823513295
  O       1.44439288566325      0.89649901624420      0.41330289887417
  C       1.26013531313537      1.96656603908324      1.36049258224377
  H       2.93527595483318     -0.79826559391461      3.86104570738150
  H       4.34591409439910     -0.71805341270460      2.74784334083638
  H       3.48856584106783     -2.27727953663070      3.00878094338787
  H       3.90532299054591     -1.87601727670642     -1.42035065606242
  H       2.34414979133862     -2.59651604774321     -1.95525738973034
  H       2.95222514729057     -2.92542196318825     -0.29478776839153
  H       1.04893193644701      1.55156630331949      2.35669351138130
  H       0.40670133950814      2.56771233343879      1.02026180105962
  H       2.15814574601184      2.60254037884530      1.39164795893253
