37
Coordinates from ORCA job orca
  No     -0.33551624770871     -0.43105085879904     -0.38217257882539
  C       5.09009965363261     -2.24358341266779      3.83536459743907
  C       5.00555778636180     -2.80316280019362      2.55954918582246
  C       3.95775797055948     -2.45046114128243      1.71325530022093
  C       2.99064077881617     -1.53545838598451      2.13970554951129
  C       3.07833596072616     -0.97715029184681      3.41846285451273
  C       4.12571854085181     -1.33083340849948      4.26480548757964
  C       1.86844896783000     -1.14570210386668      1.22572267187865
  O       1.79867347268648     -1.68386007241570      0.08742400610685
  O       1.03603657238782     -0.28458778377769      1.62651862781012
  H       5.91386307357035     -2.51995948674149      4.49956925780169
  H       5.76287348238577     -3.51753715694752      2.22505207074501
  H       3.86585531127539     -2.86996033691078      0.70837761827237
  H       2.30882793656753     -0.26411909097221      3.72414611775846
  H       4.19404761383510     -0.89269647317930      5.26442252071211
  N      -1.05350627352511      1.24779816255919     -2.33620982699227
  C      -1.59746411027853      2.45099260646858     -1.71521942703052
  C      -0.70065681733618      2.96267787179111     -0.59936066005168
  N      -0.60268754547895      1.96837327294947      0.45805506609449
  H      -0.43105147744412      1.48003159180770     -3.10846540101745
  H      -1.81786798561342      0.67324850448456     -2.70202314278047
  H      -2.57662899761178      2.18371072988368     -1.28369390015489
  H      -1.77765533603298      3.26681825601207     -2.44068482171485
  H      -1.08438496311537      3.94083739514636     -0.24838112301542
  H       0.31305755684838      3.14799343143081     -0.99717636084270
  H      -1.47923669717224      1.90026185041219      0.97774916356029
  H       0.13600433551031      2.16703290530291      1.13121291280347
  C      -0.44820366226276     -1.94856952270192     -2.66614467746995
  O      -0.63573729368715     -2.59492395443767     -3.57026485399415
  C       2.10653362157809      0.48959241738500     -1.43071835606010
  O       3.21254076017429      0.66752874478605     -1.56445430704250
  N      -1.06292481946724     -2.64273363004393      0.71004045628311
  H      -0.39161706915827     -3.40796982856791      0.65306399995883
  H      -1.95394868234075     -2.95288162202751      0.32230948607803
  H      -1.22614197956876     -2.46236353239541      1.70093815188520
  C      -3.07065575469774     -0.78235755751964     -1.34902388769650
  N      -2.82858768309771     -0.36477528864049     -0.27325177814611
