41
Coordinates from ORCA job orca
  Am     -0.43068735853066     -0.64837137409769      0.69741296325070
  C       0.24795958799139      4.75039566917772      5.07574162839199
  C      -0.05878975430888      4.97729980851831      3.73295333765502
  C      -0.19367518793846      3.90161673291099      2.86183278946103
  C      -0.01950488262986      2.59739638667764      3.33778767084918
  C       0.28820260800849      2.37028307728588      4.68366620472470
  C       0.42080449576340      3.44934256925894      5.55121258341309
  C      -0.16354272707299      1.45304592558805      2.41370503441621
  O      -0.44199858465761      1.65024975537779      1.18884026383910
  O      -0.01193701470440      0.26392322175254      2.83324082962317
  H       0.35357830230744      5.59712935073293      5.75952463171287
  H      -0.19299220602434      5.99818122846383      3.36659591002026
  H      -0.43544705004261      4.04846916655144      1.80660737992256
  H       0.41766063034896      1.34136312779202      5.02737934838885
  H       0.65973822172712      3.27856331753445      6.60391899580178
  C       1.54656167148806     -1.25645289861535     -0.70092658368684
  N       2.25964283769638     -1.86582372543410     -1.39829834613972
  C      -2.63701779182013     -1.66714530237259      0.30179691911571
  N      -3.61074051935557     -2.24395867747530      0.01291134677202
  C      -0.11533386417721      1.51186684625139     -1.90275775952847
  C       0.30197169564337      1.08435858468228     -3.29472577332157
  C      -0.91414253599830      0.28642673479084     -3.75250421832679
  C      -1.30124252962165     -0.46058140242048     -2.48880272346156
  O      -0.89421158052587      0.40628445568886     -1.40518376399067
  H      -0.75603263176311      2.41005173802213     -1.90694568217482
  H       0.72391963198524      1.68274179730065     -1.21261239826848
  H       1.18890834857227      0.43271024943504     -3.23453062886982
  H       0.53714888060705      1.94053095107654     -3.94348355381212
  H      -0.70039759074695     -0.39752548141482     -4.58631194116576
  H      -1.72795574071681      0.96126730451989     -4.06540346922079
  H      -0.74264301207412     -1.40970856267274     -2.39537789099240
  H      -2.37584445129234     -0.66411497465612     -2.37918147256696
  C      -0.95649026337965     -4.71574230010149     -0.54116676440712
  C      -0.66645579823512     -4.23445793287031      0.85778830638277
  O       0.09264112033162     -3.01711958618562      0.85018323907864
  H      -1.49975471953493     -5.67236589831234     -0.50397654642495
  H      -0.02670555913859     -4.87726818793089     -1.11215916278843
  H      -1.58855121236608     -3.98807086637528     -1.07214486088856
  H      -0.10558283454629     -4.98301512840187      1.44309367539300
  H      -1.59786385100509     -4.00071023056526      1.39238783501688
  H       0.88890321973696     -3.11366546948803      0.29581264680617
