33
Coordinates from ORCA job orca
  Fm     -0.58228985937071     -0.19484721022594     -0.01188471591497
  N       1.34857344826829     -1.42120723445765      0.62177483964455
  C       2.00714969093115     -2.16987761759816     -0.27580957060380
  C       3.05570541730413     -3.00946736890919      0.07331515571287
  C       3.42790180671956     -3.07013554405078      1.41387331531400
  C       2.74274869203008     -2.29768207679721      2.34909628989224
  C       1.69806677110244     -1.47618539655612      1.92791056024572
  C       0.90253704887946     -0.63996548964263      2.85524850258245
  C       1.12203101203931     -0.60976885989783      4.23174424971396
  C       0.31059393919794      0.18560506172475      5.03805018056842
  C      -0.70608805832050      0.93653247750153      4.45401967096069
  C      -0.86539125356820      0.86112541609064      3.07706743513550
  N      -0.08365107195322      0.09911206680554      2.29752285380077
  H       1.67250934664518     -2.09779061563007     -1.31633946261995
  H       3.56253234119886     -3.60354374803694     -0.68992423510402
  H       4.24633334360036     -3.71992402486443      1.73507522302154
  H       3.02663664024281     -2.34738554118770      3.40079593033502
  H       1.91423021411024     -1.20562907206655      4.68605946899337
  H       0.47101957577862      0.21200986485182      6.11917729032925
  H      -1.36831971344988      1.56693784684776      5.05108172586146
  H      -1.65704260482532      1.42793333708128      2.57574502986199
  Cl     -2.35826703239351     -1.82805717027196      0.03516706479623
  O      -2.26885333514060      1.49732834952675     -0.02969736197257
  H      -2.33632205062027      2.45424098024326     -0.17186819095276
  H      -3.17991491024864      1.15642536523545     -0.03512752217916
  C       0.16233523113134     -0.03975341701070     -3.49068973546779
  O      -0.40558825752002     -0.64900880066559     -2.31290221809768
  H      -0.62524598424467      0.44207794368110     -4.08735306841589
  H       0.68395755940479     -0.79704471355918     -4.09249805253637
  H       0.88464847720816      0.71625469545366     -3.15618399250560
  H      -1.03718264489448     -1.34247946886779     -2.56868049608434
  C       1.41201534324217      1.75622443500470     -0.11720513082667
  O       2.30513087751506      2.42264553024820     -0.00686103348852
