50
Coordinates from ORCA job orca
  Cf     -0.06378958938701     -0.62710446789385      0.12317850586275
  C       4.39301421897090     -0.36977548280170      1.05853586504636
  C       2.93590706748849     -0.25304733570267      1.36347056946084
  C       2.50529627381899      0.11140121561956      2.64853908017565
  C       1.15857587443193      0.16842188641312      3.04356537899534
  O       0.18524833674864     -0.07495141648277      2.24972875377995
  C       0.79633961348727      0.50999312790530      4.45055616838987
  O       2.13370390777859     -0.50715824742321      0.39862069702163
  H       5.03030813757600     -0.12279429937676      1.91625170535996
  H       4.64615408771454      0.28756726009335      0.21084747855112
  H       4.60510587553593     -1.40072389945230      0.73114713163169
  H       3.26605048759857      0.31826401651985      3.40147367918317
  H       1.66709355607904      0.76716862272996      5.06567550797032
  H       0.27420558808563     -0.35037561993446      4.90066483484457
  H       0.07979390134570      1.34653790950716      4.44974079195424
  C       2.28968077737472      2.69023176691459     -1.01968223450225
  C       0.99345567197251      2.67696091740222     -0.25101741067358
  O       0.10986337330123      1.64386854323176     -0.72013708605396
  H       2.95952044106084      3.46724535162991     -0.62133155972245
  H       2.12211563995076      2.92197803536681     -2.08516557481522
  H       2.80000048355049      1.71755387033399     -0.94474585870578
  H       0.46938420695385      3.64495395195738     -0.31842040717071
  H       1.15985819526408      2.45787590134780      0.81546165874699
  H       0.08536363385766      1.63483632658358     -1.68929497588589
  C      -0.47328558986396     -2.94819636943843     -0.36264635947194
  N      -0.83965285107030     -3.93899401746746     -0.86015491019417
  C       1.13035379788562     -1.25425202218522     -2.88519824355109
  C       0.59730412591520     -2.31048453907803     -3.82969738449172
  C      -0.69121548311903     -1.66661293265309     -4.32969371138548
  C      -1.23079525360015     -1.02650758322146     -3.06692139026647
  O      -0.05132724487056     -0.62547710715871     -2.31693364278640
  H       1.71222526583268     -0.47378322034282     -3.40506466228160
  H       1.73980737038466     -1.65963248790133     -2.06036051029660
  H       0.37442483210127     -3.23463202184222     -3.27297639575977
  H       1.30981376897264     -2.54527003404482     -4.63303031734091
  H      -1.39907488849785     -2.39193759007646     -4.75546267429163
  H      -0.48022349697259     -0.90354992875157     -5.09694513206506
  H      -1.79166679978975     -1.75541243571480     -2.45802246846148
  H      -1.84625030377978     -0.12984828266439     -3.23663348756878
  C      -5.26054743882907      0.16281635452312      0.48959484018664
  C      -4.39653056114525      1.25539864215127      0.43340401095831
  C      -3.03552528503589      1.01938502128213      0.29249178192278
  N      -2.52242073040399     -0.21773127308479      0.20948930346776
  C      -3.35559698838622     -1.27030384721516      0.26040357895463
  C      -4.73060428137372     -1.12187396278866      0.40036214447123
  H      -6.33769163540559      0.31282083164269      0.60115853411431
  H      -4.76986414467715      2.27944383757479      0.49775825190656
  H      -2.32141943636113      1.84791986634080      0.23681675325944
  H      -2.89710880935211     -2.26303030868171      0.17965385972621
  H      -5.36927769911737     -2.00668252369227      0.43824553180071
