34
Coordinates from ORCA job orca
  Cf     -0.28879412380137      0.13826342765486      0.70428423343275
  C      -1.97943212496417      6.79864394715178      0.46271133118756
  C      -0.67885153517503      6.40897348899216      0.13435419920703
  C      -0.32881591048969      5.06573411455384      0.17776835132098
  C      -1.28898958413058      4.11248267244387      0.54712726040356
  C      -2.59403964772152      4.50474933877903      0.87800011689756
  C      -2.93485609388836      5.85075325464647      0.83560418690610
  C      -0.92658900373087      2.69898629677889      0.59240838579047
  O      -1.78435327064479      1.79871514289358      0.90095262537696
  O       0.26119593559771      2.30210541053756      0.32389516692927
  H      -2.25142414580971      7.85702291536090      0.42984107801261
  H       0.06121925885969      7.15966281016477     -0.15250367424166
  H       0.68348798050404      4.73684030605616     -0.06757005636070
  H      -3.32247524052084      3.74426090904274      1.16835978765610
  H      -3.94772354443295      6.16754974134526      1.09480977846073
  C       4.65173235073739     -0.62519206461822     -0.68755542063964
  C       3.98783886464235      0.51417871963224     -1.13952057001767
  C       2.66437878804949      0.70732611054732     -0.76858879193838
  N       2.00517578863568     -0.17213387987795      0.00471861313556
  C       2.64778189814900     -1.26659663735512      0.45033624852598
  C       3.97147106013450     -1.52998877922883      0.12496142947171
  H       5.69571122207863     -0.80232752669870     -0.95963014524009
  H       4.48943022262470      1.25304081839022     -1.76764229259751
  H       2.10882903436349      1.59966302062846     -1.07313768127930
  H       2.08507792754094     -1.93617084395068      1.11208091716881
  H       4.45758746693369     -2.42679445878691      0.51401554986154
  C      -2.71310108444176     -3.41850127460208     -1.83178442582971
  C      -1.96576634916195     -2.34853137688315     -1.22034945151239
  N      -1.36745066433493     -1.49411588462956     -0.72118159341087
  H      -2.55523425820440     -3.40774684854855     -2.92102809396803
  H      -3.78495377383681     -3.28738369303087     -1.61745129454647
  H      -2.37577332891021     -4.38305148641581     -1.42207956088843
  C      -0.00209014256607     -1.08127180237863      2.68909177159447
  N       0.32769602791471     -1.90264588859522      3.44950202113113
