51
Coordinates from ORCA job orca
  Th     -0.21713402268651     -0.52875328785716      0.29709837193142
  C      -2.30873249921193      3.68889505293652      0.58807631319334
  C      -1.11575815083372      2.78330853240341      0.52877138918427
  C       0.17298834170852      3.31869716300783      0.50797692629919
  C       1.34565888380329      2.53371797704028      0.48062264275109
  O       1.34400459476260      1.26986531903728      0.55310600960867
  C       2.67685378890529      3.20029088078440      0.32444072626339
  O      -1.36826708027175      1.53070109218993      0.48868842229011
  H      -2.03714864162159      4.75205114436646      0.60641075656391
  H      -2.89513873866470      3.44875167896895      1.49002459857239
  H      -2.95852344808165      3.49109735136244     -0.27985961254381
  H       0.28167440990923      4.40358851788465      0.49888423003412
  H       2.64239744628609      4.27502521629255      0.54553295301552
  H       2.99643271535236      3.06858665162320     -0.72529229721186
  H       3.42141948795427      2.70237308369541      0.96260771286332
  C       2.28115636402490     -2.59279476488628      1.26681928968725
  C       1.43178316866021     -2.24691377686915      2.49156061160525
  O       1.52906144405566     -2.85792982484621      3.52490667131790
  O       0.57205441042695     -1.27556476597710      2.26446897602066
  N       2.14691925560827     -1.57382839595049      0.23529387285726
  H       1.88099734235641     -3.54407187777438      0.87954121611135
  H       3.31930065975705     -2.77947051352921      1.58819493373226
  H       2.38381956837931     -1.87878352392129     -0.71599263622985
  H       2.74937959742865     -0.76978526042520      0.42319578069357
  C       2.26115996469790      4.07676040940920     -3.82732326560020
  C       1.01556420966264      3.71867428800053     -3.31137162546458
  C       0.79373074154821      2.41646681611988     -2.86808778896813
  C       1.81788953881200      1.46709541645036     -2.93713650419415
  C       3.06183991078196      1.82769709778015     -3.46655130408528
  C       3.28359314511446      3.12877217746707     -3.90841916003863
  C       1.64198104756784      0.07856129012829     -2.39804605941770
  O       2.54404036586384     -0.73925351102521     -2.46668179637716
  O       0.49682593823918     -0.15104949128931     -1.81305915186550
  H       2.43646056738804      5.09985501522961     -4.17165100912535
  H       0.21362702398242      4.45976365261885     -3.25156943846843
  H      -0.17391012398357      2.12372596273154     -2.45344845316321
  H       3.84148469355445      1.06307343312477     -3.51172423287940
  H       4.25782957281170      3.40904006803969     -4.31806702058971
  C      -2.32541803091581     -0.65111121585976     -1.69972973355933
  O      -2.95229734800557     -0.85725084870332     -2.61237700441453
  Cl     -0.98094098768234     -3.01564754401550     -0.30524348577897
  C      -3.47873835828386     -2.08010624026936      3.62874728286713
  C      -2.33320118543162     -1.77542585919506      2.89153733356639
  N      -2.38150743595677     -0.87538812605498      1.90691481075001
  C      -3.55159515473690     -0.27998379619717      1.66707094887060
  C      -4.68419127766075     -0.60024799970894      2.41233390886361
  N      -4.64944754682102     -1.50015781310425      3.38957574638030
  H      -3.43206049559040     -2.81811521275540      4.43667327212135
  H      -1.36282422004951     -2.23614911580252      3.10073688429056
  H      -3.56957862257402      0.47741198122468      0.87713514293182
  H      -5.64191483033977     -0.10896450390074      2.20728384473776
