39
Coordinates from ORCA job orca
  Md      0.46665935329819     -0.47076314913964      0.37808547102772
  C       1.02503048209977     -3.36355213269283     -1.06299438166304
  C       2.38172603015700     -2.71629144941248     -0.73664630505012
  O       3.40115735924260     -3.24278850847170     -1.13009150072527
  O       2.28335629827191     -1.60567578501676     -0.07941769155185
  N      -0.01965895021019     -2.86525365735789     -0.18159165618237
  H       1.14365268245616     -4.46092684631539     -1.05925101974026
  H       0.78053672571000     -3.06184008850127     -2.09500295414158
  H      -0.02913149416088     -3.33690359842284      0.72265983913556
  H      -0.95466880059701     -2.96952366133737     -0.57255331828683
  C      -0.08943369018755      5.73997383605685      1.56760045579199
  C       0.30456738815051      4.83058802086136      0.58581329743696
  C       0.71737999163718      3.54704570582908      0.94301609520968
  C       0.74514484998671      3.16724360235090      2.28804729803637
  C       0.36339863512240      4.08757855425283      3.26853893646847
  C      -0.05931363464174      5.36533699434177      2.91232396410052
  C       1.17174487749121      1.78245118064102      2.73080053919666
  O       1.33536406689716      1.55727070467064      3.91505695239188
  O       1.31682707323039      0.92359607089380      1.77374313806509
  H      -0.41795918421150      6.74487768981828      1.28496644321587
  H       0.29086378320335      5.12059831430801     -0.46934270998174
  H       1.01595129418533      2.82905714131787      0.17549662217785
  H       0.40980662968908      3.75859514797889      4.31012533036887
  H      -0.36611789071763      6.07616749503235      3.68570798747313
  C      -2.07618849704604     -1.71623010533482      2.46194412251569
  N      -1.10487304731959     -1.31714836777713      1.92772139651852
  N      -0.02872354645953      0.53675303466274     -2.24504699665818
  O      -0.34833795037744      1.03350163745018     -3.29181174082472
  O       0.68395969911735      1.14723666720457     -1.39953325960540
  O      -0.40283843072379     -0.62027348850177     -1.90561044190501
  C      -3.24399127976539      1.28881076089041     -1.19610948733878
  C      -2.22667928174073      1.90441543268145     -0.25883955352532
  O      -1.52388001001304      0.92828614487365      0.48292430557112
  H      -3.76193481075952      2.07441856858589     -1.76923906005061
  H      -4.00441930096343      0.71779525802174     -0.63767102155248
  H      -2.75407401320771      0.60799485740616     -1.90923825895970
  H      -2.69783185337238      2.62382937932841      0.43535705336008
  H      -1.46051129736702      2.45791220654081     -0.82256743342625
  H      -2.07876025610418      0.45863643228192      1.12772954310735
