38
Coordinates from ORCA job orca
  Cm      0.03123340609503      0.20121904741201      1.66935652219268
  N       1.55589240258587      1.83520034153823     -0.25768241321161
  O       2.12916043015326      2.48878443210926     -1.09284490656121
  O       0.91202183606587      2.37239636586371      0.68369836748435
  O       1.55028396341638      0.57292452260465     -0.28643951559617
  C      -1.67233532698975     -6.01391285872452     -1.30678649960386
  C      -0.40399511260936     -5.82508561265918     -0.75485737199565
  C      -0.05202643326476     -4.58526183824585     -0.22755546247415
  C      -0.96812579959200     -3.53083679673116     -0.25153341606571
  C      -2.23803561015530     -3.72195281733415     -0.80126729069354
  C      -2.58959057220453     -4.96222251952183     -1.32901946846610
  C      -0.58642542224846     -2.20149819484904      0.32793032232063
  O      -1.43574017718143     -1.26075068512709      0.29641492711640
  O       0.55207202349038     -2.06231783867295      0.82778667800926
  H      -1.94961799448736     -6.98931449663119     -1.71800070175881
  H       0.31134923728172     -6.65245814531163     -0.73302329462909
  H       0.92774916488918     -4.39901942166427      0.21964761827563
  H      -2.93348393471107     -2.87876329036786     -0.79228886932295
  H      -3.58524649094517     -5.11390466989288     -1.75624678360386
  C      -0.02840838589923      2.03927246888005     -3.78568505388807
  C      -0.46231869499905      0.92338226064767     -3.07312344665149
  C      -1.10070889437866      1.07824020010182     -1.84578009635985
  C      -1.31039336071947      2.36441251532760     -1.33682115416513
  C      -0.86561919221623      3.48543470330690     -2.05027258142339
  C      -0.22652034774810      3.32112430530625     -3.27308450674861
  C      -1.96266910693059      2.50216880655766     -0.00805028145073
  O      -1.90280270782620      1.66250557614758      0.86056753819896
  O      -2.66638284241863      3.61386553607271      0.19697144091176
  H       0.49327817030865      1.90972946523719     -4.73780695519807
  H      -0.28351231942606     -0.08264793598960     -3.46073540612983
  H      -1.42310645275080      0.20633735886093     -1.26268613890975
  H      -0.95411523666187      4.48875481960145     -1.61970950425630
  H       0.15285209838786      4.19343326223299     -3.81099496618296
  H      -2.68067698782970      4.12969756467362     -0.61972511696279
  O       1.62831451949647      0.10376974510728      3.39359922317279
  S       0.34765431994770      0.12008111780741      4.32631257147637
  O      -0.40714533371108      1.36584489835111      3.74131987144301
  O      -0.48585883421349     -1.04073219202483      3.67741612170785
