45
Coordinates from ORCA job orca
  Np      0.03452717063284      1.74378278332970      1.38396831762982
  C      -0.52880727765117      1.81668611769298      6.51943195442355
  C      -1.42133200250482      1.05729320801732      5.76154278061594
  C      -1.29635885027924      1.05902991920495      4.38146066316130
  N      -0.34057163860926      1.77601347307072      3.75555802575801
  C       0.52442667513112      2.51025066254505      4.48711070580985
  C       0.46226417950072      2.55342132887623      5.87115308774150
  H      -0.60431148924591      1.83250187827892      7.61034926503598
  H      -2.20801784141380      0.46578166836693      6.23475249450167
  H      -1.96623632188792      0.46856690977428      3.74876920810179
  H       1.28500774683894      3.08091365035560      3.94126677098554
  H       1.18091010943254      3.15895726024509      6.42765066244373
  N       0.53093598534392      4.43099455314337      0.92714785014974
  O       0.74237183474696      5.56153515063838      0.73839913023708
  O       1.33593744164629      3.63252113092185      1.54831990161867
  O      -0.53524054536361      3.81251923925978      0.54397848189486
  C       4.99546629447068     -1.83958606453838     -1.63877328448499
  C       5.00403868070549     -1.68652315695380     -0.24762782862675
  C       3.98681084203923     -0.97987021343987      0.37262395685866
  C       2.95524642258755     -0.42496850073510     -0.41335530859228
  C       2.94839600004171     -0.58264510911043     -1.81541439259321
  C       3.97256579730796     -1.29123982917182     -2.42138705392464
  C       1.90699321018055      0.31443083991445      0.22023607082594
  O       0.91743837926920      0.84795804238524     -0.42997267380823
  O       1.85273538414865      0.52076648583336      1.49931778485430
  H       5.80302641433706     -2.39596965366059     -2.12290487153375
  H       5.81195319990061     -2.12154871220573      0.34488810174587
  H       3.97490997570686     -0.84561144534653      1.45671014335640
  H       2.14261169219312     -0.14156834073581     -2.40672087533615
  H       3.98542975987062     -1.41985171270215     -3.50596336623082
  C      -5.05392851815737     -2.49992078651007     -1.26938457980686
  C      -4.22556062620152     -2.86834324610513     -0.20444501970651
  C      -3.32489609193295     -1.95298482647421      0.31478964722534
  C      -3.24879234571721     -0.65783488132712     -0.24222054284834
  C      -4.09152006306129     -0.29232927913975     -1.31576892832967
  C      -4.98975164297837     -1.21514608374860     -1.82304709767201
  C      -2.29472105837877      0.25275471650104      0.31329471105943
  O      -1.58085186876502      0.04685482633707      1.32078340822990
  O      -2.05393326172060      1.45930379491944     -0.21669333447579
  H      -5.76462374862583     -3.22478081545736     -1.67629044355801
  H      -4.28745610388602     -3.87481258988860      0.21529073767206
  H      -2.66469828429657     -2.22217033875849      1.14252439963769
  H      -4.07580421043905      0.71166727671368     -1.75416824310522
  H      -5.64925868301061     -0.94083227297833     -2.64934517325264
  H      -2.48873072190564      1.66443294266239     -1.06203524368900
