23
Coordinates from ORCA job orca
  Lr     -0.12590065576052      0.57530821871245      0.01226256399614
  N       2.20047894281431      0.17094036298239      0.32649929228845
  C       3.08501117376767      0.13413694909911     -0.67843408606946
  C       4.44601862450940     -0.05146465000886     -0.47560213097511
  C       4.89692687621882     -0.20150739985419      0.83230922826066
  C       3.97983984106811     -0.16477698158044      1.87869055343714
  C       2.62543276201773      0.02314174265263      1.60147022541351
  C       1.59273874872547      0.06734868154962      2.66677029981389
  C       1.89601338742459     -0.07990556224302      4.01954650452448
  C       0.86974731149866     -0.03192576725441      4.96002918351237
  C      -0.44100917233009      0.15846692814221      4.53460872848027
  C      -0.67317455886733      0.29875971002795      3.17229093464302
  N       0.31546963005156      0.25580574486802      2.27150030766849
  H       2.69267710443202      0.25810381890589     -1.69443189240442
  H       5.12996380390171     -0.07530321764424     -1.32605010555992
  H       5.95975324184307     -0.34722370945216      1.04163985960850
  H       4.32862275094223     -0.28235732263328      2.90464550076501
  H       2.92339264455714     -0.23149860391565      4.35057991753238
  H       1.09849043093012     -0.14455991220445      6.02279720573482
  H      -1.27403751400040      0.19982267401585      5.23869896637642
  H      -1.68755888321575      0.44921830927505      2.78660475592372
  Br     -1.77044903904009     -1.33207352236692     -0.50141221692059
  Cl     -0.82434745148853      2.88394350892644      0.00178640395014
