32
Coordinates from ORCA job orca
  Fm      0.08905911824294      0.69631900387441      1.06272618453477
  N       0.39770935949243      0.12048567532759      3.69400086324354
  O       0.27274597281947     -0.73348221651662      2.77207602715056
  O       0.36918766367242      1.28312394464285      3.23572773177396
  C       4.65520538946687     -0.45942363558031     -0.81081314984331
  C       4.06099818645387      0.71880897143169     -1.26629824584105
  C       2.79376624441914      1.04876678294548     -0.81224713651305
  N       2.11968089960902      0.26294107628506      0.05366835054118
  C       2.69704137970808     -0.87778743587186      0.49492354072920
  C       3.96063944304273     -1.27273049736081      0.08542128306844
  H       5.65628588988882     -0.74078580559645     -1.15043587293788
  H       4.57666243221624      1.38114381977069     -1.96538730170973
  H       2.30249002329080      1.97009726479960     -1.14191462229192
  H       2.13003852891691     -1.48640552755068      1.21240542751193
  H       4.39276857346729     -2.19963442826946      0.46943573714432
  C      -2.86712922310640     -0.73362277994396      0.97949547971844
  C      -3.60567791175239     -1.73419622549474      0.11980791240514
  C      -2.48103838490591     -2.61266539785721     -0.41724792901983
  C      -1.40898189484078     -1.60059685170941     -0.74572068613847
  O      -1.56244006414898     -0.56391682043444      0.29509625380744
  H      -2.65224106595546     -1.11908602240760      1.98939543610355
  H      -3.34056886856970      0.25724484581690      1.03780571734814
  H      -4.13806403854010     -1.22596145912941     -0.69970986657928
  H      -4.34763613184046     -2.29662971321642      0.70455319688484
  H      -2.77348212004054     -3.19347056916239     -1.30375724619452
  H      -2.12835444670619     -3.31987609363855      0.35044883213687
  H      -1.56805924408588     -1.11036783829110     -1.71895722566899
  H      -0.37949966757184     -1.99034388982507     -0.68551453764623
  F      -1.35949413699954      4.20157985616635     -0.41466503570179
  P      -0.84180999294138      4.03472289219241      1.05145060655408
  F      -1.59793016323973      2.57366122548890      1.33361021644680
  F       0.51792825053824      3.14248784911458      0.64212005898281
