32
Coordinates from ORCA job orca
  Es     -0.32707731327201     -0.01495673330696      0.01476109698131
  N       0.01225506200785      0.07273961978344      2.39232846871905
  C      -0.80363440310268      0.79288132052639      3.17544403645157
  C      -0.76846016095526      0.72613612694888      4.56168041515370
  C       0.15285547267800     -0.13521902594659      5.15146430521300
  C       0.99792478758308     -0.88969443649161      4.34111616386843
  C       0.90799810536682     -0.76846292180835      2.95465178170392
  C       1.76006424519065     -1.54018343027185      2.02109762677000
  C       2.69569499010090     -2.47935773509460      2.45396048287116
  C       3.45651117345631     -3.17383463559357      1.51700015034145
  C       3.27204027915190     -2.91214785360446      0.16217120994676
  C       2.31990787231816     -1.96756698856389     -0.19416161664954
  N       1.58190647304220     -1.29849713828076      0.70237753293480
  H      -1.52534234037565      1.44131496532663      2.66763079240688
  H      -1.45251926094661      1.33095860861903      5.16049429040188
  H       0.21318109147854     -0.22559753738733      6.23927771326731
  H       1.71783407034307     -1.56853013246141      4.79901455186121
  H       2.83245432277103     -2.68304541944220      3.51619616811585
  H       4.18731027994685     -3.91723968922222      1.84608091618946
  H       3.84693030437348     -3.43251288189394     -0.60659712139463
  H       2.14025266127528     -1.74409030886317     -1.25066279116903
  O       0.72569227696467      2.20405988589299     -0.14893524092754
  H       1.41397164563300      2.48130246872828      0.47609006896880
  H       0.64737305594150      2.93663753926003     -0.77872072721010
  O      -2.31883728224481      1.33432927720670      0.07936380852374
  H      -3.13501983247482      0.80579616789936      0.05576451546695
  H      -2.58778040931146      2.26481457798136      0.07939993084632
  Br     -1.95832266865521     -2.03585003652742     -0.10316904467794
  N       0.13747220268934     -0.21336544520362     -2.44398165183453
  H       1.04940052097151      0.03865319570751     -2.83786996173969
  H      -0.54343130842929      0.31689525915042     -2.99921736581881
  H      -0.02910591351643     -1.18816666306698     -2.71905050558205
