39
Coordinates from ORCA job orca
  Th     -0.30617937870672     -0.39100985164967      0.62178253415839
  N       1.75760295829201     -0.26391447583655     -0.67300086398066
  C       1.94651891614869      0.76951898500728     -1.52449278781708
  C       3.08849881600079      0.90471998063505     -2.29727232104823
  C       4.08269779963077     -0.06745108128073     -2.18049207958287
  C       3.89126415469934     -1.14243652698207     -1.31082533843621
  C       2.71724924452473     -1.22787369383426     -0.56952712726243
  C       2.40358732567356     -2.34631438178539      0.33832418399199
  C       3.21141228000972     -3.46530675721759      0.51082874290977
  C       2.78829243526928     -4.49411136151132      1.35638266951579
  C       1.55971503990801     -4.38989846486578      2.01067598164077
  C       0.80594323689602     -3.24559039452369      1.80190041684631
  N       1.21699617665407     -2.24347721509035      0.99654926243948
  H       1.14450208028351      1.51377793144290     -1.59068812978694
  H       3.19594210693505      1.75370044058060     -2.97733657957447
  H       5.00333968103563      0.00536158234839     -2.76818002638262
  H       4.66339070085624     -1.90911616258582     -1.22402163434995
  H       4.16344229761973     -3.55759773671463     -0.01514476951696
  H       3.41545860270952     -5.38077210282776      1.49389900656225
  H       1.19049736714708     -5.18249960330577      2.66673274962883
  H      -0.17021230067972     -3.13291409274399      2.29384403646481
  C      -0.02454472496069      3.06455484062349      0.84734208985443
  C      -0.64271123576814      4.23493962402577      0.11916003920928
  C      -2.06979759450053      3.76563032111414     -0.13963461433801
  C      -1.87917508234888      2.33477151870692     -0.57444616813335
  O      -0.71022886833065      1.86526440970972      0.26071348413822
  H      -0.25818517148835      3.06247641655080      1.92346138710980
  H       1.05716225003127      2.93628483470391      0.68566219978832
  H      -0.11073452084354      4.43868273333648     -0.82411922974431
  H      -0.59674621047147      5.15056323823166      0.72803514699761
  H      -2.57632339749977      4.35068423977702     -0.92252207932860
  H      -2.68775505181059      3.82404839095112      0.77061784244473
  H      -1.56818068129813      2.23936547516455     -1.62656898813789
  H      -2.72645490451881      1.66229538847538     -0.36540133734775
  O      -0.81350993751084     -0.29652919626774      3.05035428345701
  H      -0.20700306896936     -0.24101458134919      3.81395348782486
  H      -1.70750653517597     -0.31229200627835      3.44681464004703
  C      -2.72264929895617     -2.00713120646101     -1.11013720660688
  N      -1.90491550648689     -1.39158945827357     -0.47602290365454
