33
Coordinates from ORCA job orca
  Pa      0.19146316304073      1.83509413052094     -0.04972002989256
  C      -0.51084172873777      0.63451349099288      1.79181535708169
  N      -0.90594853395548     -0.11115186133524      2.59933624670178
  Br     -0.52261917507058      4.21465206911437      0.63775803539300
  C       6.25295448770728     -1.12701376096082      0.45500121104016
  C       5.31209457259043     -1.64638769116456     -0.44771968785081
  C       4.09598085803185     -1.01263763280415     -0.60731859201221
  C       3.82528314070692      0.15614223574998      0.15079835396865
  C       4.78155005687372      0.67947192337568      1.05986036963242
  C       5.99116620625086      0.02885695578271      1.20557570886901
  C       2.58240083999166      0.80119843347100      0.01394818910370
  O       1.61121167745014      0.38593024150187     -0.77840897373980
  O       2.22524083702227      1.87705213033500      0.67333437608744
  H       7.21376949222506     -1.63620717147590      0.57585969313685
  H       5.54334112614523     -2.54799979883846     -1.01919061180391
  H       3.34672381728213     -1.39895388722394     -1.30250648138254
  H       4.55309298905810      1.58044326219431      1.63475663564908
  H       6.74120078664945      0.41017292119247      1.90200736783750
  C      -5.53020884096105     -1.83228611144673     -0.57211464063328
  C      -4.48822208341148     -1.49200510652331      0.29758459258815
  C      -3.52018522943365     -0.58958304110869     -0.10716458224180
  C      -3.59260527956451     -0.01324417528325     -1.39798081240904
  C      -4.65402286213542     -0.36613491108722     -2.26905904513936
  C      -5.61255195638310     -1.27082019958191     -1.85412036431817
  C      -2.59276069150748      0.91602240812503     -1.81776453621408
  O      -1.56867050872966      1.20688908940025     -1.08080796361538
  O      -2.59408233032375      1.54137235599708     -2.94534770326492
  H      -6.29231615323231     -2.54758651341171     -0.24937876384012
  H      -4.43712697939913     -1.93583271788905      1.29444918875379
  H      -2.71193635201458     -0.32400839466924      0.57701980641279
  H      -4.74132599705513      0.04575863701219     -3.28077421550110
  H      -6.42942111657476     -1.54888952478595     -2.52389427211140
  H      -3.37252823253598      1.34797221482437     -3.49643385628550
