35
Coordinates from ORCA job orca
  Cm      0.02760573968593      0.43185883284989      0.99179497045634
  C       0.90804321678103     -3.53357488929141     -1.27599019839271
  C       1.24432386249738     -2.17719227745432     -0.72775718983391
  C       2.52864745348500     -1.64734902989075     -0.92463254124433
  C       2.92282329425389     -0.37711931217469     -0.46744919214532
  O       2.15041869815290      0.41725261419800      0.14875674042640
  C       4.32342872828318      0.10269584222575     -0.69855167616391
  O       0.31251305959003     -1.58476929506474     -0.09716494755529
  H       1.73992433810761     -3.99242041506670     -1.82527577739002
  H       0.03454460675825     -3.44368309889860     -1.94115608008197
  H       0.61040053188200     -4.19525670006652     -0.44654112451304
  H       3.25937076873546     -2.25168524186924     -1.46283989459988
  H       4.93841170045909     -0.61979655767517     -1.24985808999204
  H       4.78955621700289      0.31506133823752      0.27689358330694
  H       4.28986286504722      1.05739480144520     -1.24671758922364
  C       0.53823195534490      0.78194113914106      4.41070859672907
  N       0.48110834252007      0.81535729251952      3.23190142495336
  N      -1.52373547964985     -1.20764080591300      2.16042366311226
  H      -1.41805477006696     -1.19443942742470      3.17558046143233
  H      -1.39019437087647     -2.16264481799120      1.82821283997486
  H      -2.48000352681367     -0.93253773781591      1.93063347189948
  C      -4.77944214247525      4.44778419917561     -2.18042790548647
  C      -5.13360063034891      3.16829772955292     -1.74925105951019
  C      -4.18557887713806      2.35815878617734     -1.13265540938448
  C      -2.88120308381182      2.82891520032244     -0.95005056312464
  C      -2.52673621881690      4.11007463809189     -1.38431605436910
  C      -3.47813509802818      4.91862423484111     -1.99857724135177
  C      -1.87268410996664      1.96720152348149     -0.28640313860169
  O      -0.68055235370812      2.38166512947965     -0.14702145061134
  O      -2.20233499916664      0.82291779259325      0.14418725437254
  H      -5.52595907625718      5.08485590211269     -2.66269074851287
  H      -6.15397611301989      2.80419544959689     -1.89487330210192
  H      -4.43236660558174      1.35301157174086     -0.78287969359189
  H      -1.50068396246128      4.45051405838373     -1.22636243516114
  H      -3.20697396039915      5.92193153043001     -2.33714970371995
