61
Coordinates from ORCA job orca
  Lr     -0.24265188047772      0.14340454893840     -0.31336497082032
  I      -0.33764531286865      3.10774504893327     -1.31584767775920
  N      -0.84076387578963     -2.02971197272528     -1.35682366105208
  H      -0.06107330057401     -2.37621032769208     -1.92022136615868
  H      -1.71141627907637     -2.13102944600362     -1.88144101588677
  H      -0.90110795672361     -2.54781596944533     -0.47749423257087
  C      -2.86272486937951      1.45884259096745     -3.77619713241993
  O      -1.59569778702059      1.17554510798046     -4.34750058231300
  P      -0.58150477162402      0.21497156099300     -3.47100089329356
  O       0.76449803669540      0.46798670144349     -4.37342166181590
  C       1.70382013642590      1.46381273541028     -4.03024370657554
  O      -0.94979765198885     -1.26504029329418     -4.09459372773168
  C      -0.94828733638255     -1.49975414682726     -5.48011372989465
  H      -3.35326312593086      2.19937908837770     -4.42664864204163
  H      -2.75603993574774      1.88694642643386     -2.76370204554237
  H      -3.48880709640107      0.55119519054134     -3.71654107509526
  H       2.59195162601943      1.29788727275366     -4.65992754323387
  H       1.99785943359194      1.39741952220863     -2.97038999694988
  H       1.29900771339494      2.47363579270389     -4.21195022138816
  H      -1.52080426362978     -2.42250030647041     -5.66400747456591
  H       0.08063608345635     -1.62711746746363     -5.85719915697444
  H      -1.42271748113580     -0.66602523803746     -6.02615352465891
  O       1.36883225858452      1.37159532561108      3.77200150008756
  S       1.13841200231776      0.32434540136455      2.76316997467214
  O      -0.45760913313874     -0.16442097439810      3.12339081561796
  O       0.88267850396081      1.00502111560168      1.37130724521403
  N       2.00622714191226     -1.49239047822914     -1.99413622443165
  O       3.17294048846922     -1.59522298471932     -2.27463872666683
  O       1.71531556349392     -0.47461340439582     -1.26037988412339
  S      -3.08170961881420      0.51631772557757     -0.08392390409207
  C      -3.62050667232445     -0.68541995504621     -1.10556522293622
  N      -4.00287210710524     -1.50349458654405     -1.85548581812625
  C       4.52052801185691      0.16244188837752      1.68260882927358
  C       4.02071261629522     -1.01941966167202      1.11958844955649
  N       3.74125846209999     -2.08681660011713      1.86370244658842
  C       3.91984847980070     -1.95074367549734      3.17530923338476
  C       4.43021755301278     -0.78026849965808      3.73254810703899
  N       4.75189706962436      0.27405820459400      2.98896430863769
  H       4.69849553066553      1.03727099753813      1.04339685783221
  H       3.84577862394290     -1.08655086064104      0.03807887561969
  H       3.64277061372170     -2.79939620127813      3.81321239047756
  H       4.57643821404102     -0.69859171926222      4.81713107953044
  C       0.77527554397811     -4.69551401830112      4.73332765133973
  C      -0.29127939343045     -3.95651791822555      5.25196474431751
  C      -0.82682398038027     -2.89522010514017      4.52577539205321
  C      -0.30630725884609     -2.56132963818688      3.27215509015212
  C       0.75830538917828     -3.29895808181800      2.75751621044523
  C       1.29840820494845     -4.36107862133296      3.48467351781539
  C      -0.88008277566208     -1.38448595143812      2.48033853876256
  O      -0.49707667377435     -1.40614258584577      1.20054696462448
  O      -2.25962568611772     -1.42921720133263      2.63684579467839
  H       1.19667179137875     -5.52992338869037      5.30391627760664
  H      -0.70868881120401     -4.21264333576272      6.23169116762720
  H      -1.66396225983070     -2.30861546148067      4.91214960870117
  H       1.16889389789700     -3.01677878576039      1.78496822709637
  H       2.13878683105070     -4.92436100174247      3.06553896882401
  H      -2.61021453110450     -0.80506273868448      1.97405341731262
  N       3.27627720443326      2.12175173098852     -0.44168832896965
  H       3.14170008367215      1.24967988301319     -0.96259791006320
  H       2.83881969337235      2.83925400675114     -1.02362379262689
  H       2.60969902319068      2.01719573605762      0.33305216589062
