34
Coordinates from ORCA job orca
  Cf      0.72738014785107      0.30338244721457     -0.38336235278746
  C       4.53256536903188     -1.72091625344140     -1.69739667837298
  C       3.28201471565068     -1.57902051870751     -0.90224433840910
  C       2.86123568678060     -2.59397486853259     -0.03167849636056
  C       1.71904530242086     -2.51831550776329      0.77941984870356
  O       0.93418045762551     -1.50020315742738      0.78492026291395
  C       1.35067110704617     -3.63313683984761      1.69486338075708
  O       2.63269782597662     -0.47948962258454     -1.05981676379427
  H       5.04125993072961     -2.67673992113964     -1.52516807601996
  H       5.21350421112126     -0.89148137013832     -1.44544245375023
  H       4.29113209292886     -1.61614155756313     -2.76761469853766
  H       3.47355903007354     -3.49307438041190      0.03570169278502
  H       2.07028888330644     -4.45984623878265      1.67176191170350
  H       0.35206447789947     -4.00703030672643      1.41421333486792
  H       1.26212760924682     -3.24420434968929      2.72197052427210
  N      -1.59275339118851      0.21341759009220     -1.87880925089086
  O      -2.56876513935782      0.18262382607255     -2.53905786166613
  O      -0.44403548141421     -0.16673477403736     -2.30692794718963
  O      -1.57055310182969      0.63589354122127     -0.67135927275542
  C       1.34726640131181      7.29750468131404      1.33416693458947
  C       1.23109247579895      6.26154640036707      2.26297205339647
  C       1.16756637499084      4.94539221504153      1.82712509243019
  C       1.20984179223765      4.66603171059596      0.45050001560293
  C       1.33435434333118      5.71313818697194     -0.48037379814587
  C       1.40354625686578      7.02521198677498     -0.03547109583251
  C       1.12428465272802      3.27511167784602      0.04010097320055
  O       1.18000747620658      2.30851326736178      0.80418433307607
  O       0.96454731259844      2.95104797080470     -1.24690576521564
  H       1.39822839220148      8.33312424700727      1.68030991746997
  H       1.18960387399020      6.48485689883407      3.33131791358821
  H       1.07530736757935      4.11930549826992      2.53581383500547
  H       1.40874375856375      5.52637291085385     -1.55747194334032
  H       1.50780439786323      7.84093382244024     -0.75421366468821
  H       0.82298538983346      3.70620078770895     -1.83882756660564
