25
Coordinates from ORCA job orca
  Pa      0.18931087638383     -0.12803062740705      0.07040070928877
  N       0.45355759007933     -0.03761125245929      2.29240693819120
  C      -0.61873318514646     -0.05247797138584      3.15995108522379
  C      -0.45228601822399     -0.06284049119761      4.53290299884386
  C       0.84776135818436     -0.05833621240618      5.06018391561798
  C       1.95543300898725     -0.03645839534303      4.18503158644882
  C       1.74895801640274     -0.02507110629970      2.81936727042200
  C       2.80720113557199     -0.00140553733094      1.80627510617949
  C       4.17796060008124      0.01343130555172      2.00773144740288
  C       5.04500519775192      0.02936582409476      0.89636955861816
  C       4.53063367196914      0.03389785802802     -0.41887837940660
  C       3.16199327972646      0.01825006994459     -0.58385394387898
  N       2.32124747525269      0.00160056074721      0.50605645974318
  H      -1.62662724454148     -0.05535396651774      2.72878413984648
  H      -1.33502102557152     -0.07504922439996      5.18531891822796
  H       1.00846705627163     -0.07039108934955      6.14766715965664
  H       2.96837097001296     -0.02857653721897      4.60175628782661
  H       4.59959785126952      0.01173039317235      3.01924934337866
  H       6.13335371868199      0.03712114936267      1.05680576922347
  H       5.19261706665893      0.04954557834985     -1.29517527018780
  H       2.71918440266279      0.02167561893671     -1.59783628132041
  O      -1.71378405752288     -0.11977125915242      0.04794068956400
  H      -2.70265298066736     -0.17008748052423     -0.09826487577576
  C       0.03967298505373      2.50111359690988     -0.24011298116495
  O      -0.05302174932888      3.60232919589475     -0.36887765196951
