39
Coordinates from ORCA job orca
  U       0.03347087029456      0.34947066342608     -1.31562926944314
  O       0.13169916104128      2.77597045836050     -1.21102943770678
  H       0.73898125109102      3.19331727718414     -0.57939396593880
  H      -0.23100286110360      3.46335344902625     -1.78782937771306
  C      -0.28558334031669     -3.21491012471250     -1.43710572313995
  O      -0.55372451765918     -1.89564362394835     -1.96089844372970
  H       0.26517033291694     -3.80450453621004     -2.18332341394720
  H      -1.23101021647348     -3.71233088375062     -1.17834185440454
  H       0.33420019004026     -3.08123308702725     -0.54363492280551
  H      -1.04483485243646     -1.96585440866488     -2.79324611595676
  C       4.30724929359754     -0.71035469843044      4.02510842218430
  C       3.86681162984572     -1.80042075699276      3.26726999227457
  C       3.06694314082271     -1.58712401509035      2.15493494989929
  C       2.70852263420413     -0.27206265302448      1.80193458965880
  C       3.15618047378276      0.82283246122070      2.56585077823225
  C       3.95339287525541      0.59734074253608      3.67766792365239
  C       1.88085404070037     -0.04289281555862      0.64359541823530
  O       1.52292918018325      1.13310872009559      0.26149809721347
  O       1.40892127708557     -1.00375193484600     -0.07728394061741
  H       4.93924582240482     -0.88296989463952      4.90053660749361
  H       4.15477684723715     -2.81530324529654      3.55057510247353
  H       2.71702247703050     -2.42541188227809      1.54800097147383
  H       2.87363896534902      1.83731825805620      2.27526924365856
  H       4.30730581180709      1.43765834403302      4.27909240884032
  O       1.98644580204196      0.21196333297884     -2.72108513833274
  H       2.87236963464966     -0.09241323769343     -2.47072492687295
  H       2.00739950521063      0.43289418307442     -3.66463908194222
  S      -2.03558692782066      1.40307544597759     -5.68433542842472
  C      -1.38922876584842      1.05725299071199     -4.31488275776134
  N      -0.88418921577609      0.78315904437075     -3.23489456891281
  C      -1.36030611775048     -0.11355521431064      1.83272694669116
  C      -2.57215898508541      0.23398733258659      1.01430822814429
  O      -2.14609510356428      0.46365019181547     -0.36302264570647
  H      -1.66065489187946     -0.29599988046571      2.87568916951977
  H      -0.63008272569879      0.71377833964104      1.85671891821452
  H      -0.87367085766015     -1.03993701158566      1.48017308074839
  H      -3.05878159934948      1.15359874021726      1.37341431265072
  H      -3.30953023221351     -0.58315508578662      1.00505081762122
  H      -2.90819000595634      0.68129901500007     -0.92301496552424
