26
Coordinates from ORCA job orca
  Pa     -0.68305695445058     -0.05166608585268     -0.05284967736959
  N      -1.00736914591341     -0.89425049451605      2.67936327881249
  O      -1.97840456024870     -0.59451010248854      1.90894987026786
  O       0.12681274013621     -0.80289582931042      2.12292177841570
  O      -1.15971705493716     -1.22661273665543      3.80941422604661
  I      -0.71764533453808     -2.88143991499435     -0.90871411220654
  S      -0.29850197779507      4.57950226895297      1.78425117225197
  C      -0.40878338523435      3.09908722841402      1.24147862683806
  N      -0.49842849518650      1.97402467149951      0.83585501899061
  Cl     -3.10472188147864      0.32052254378081     -0.76071366650994
  C      -1.47461781327055     -0.81014480129863     -6.58917655192428
  C      -0.41132292890335      0.08635251713584     -6.71468076912188
  C       0.12074786559334      0.69279498394250     -5.58238567630102
  C      -0.40087274075285      0.39959702192718     -4.31722960572725
  C      -1.46693274052294     -0.49664736053787     -4.19324284797806
  C      -2.00234373984740     -1.09685300957807     -5.33110402062863
  C       0.21129202505004      1.08536894968380     -3.13940287079691
  O       1.02272228454512      1.96649611019600     -3.23902836461534
  O      -0.22351501155633      0.63743907222331     -1.95893850412433
  H      -1.89419778684963     -1.28779603957716     -7.47945610783490
  H       0.00295944550745      0.31098485237248     -7.70155936915399
  H       0.94966134295135      1.40228174799429     -5.64492270710039
  H      -1.88310254761718     -0.71486066455669     -3.20712837294532
  H      -2.83662215234130     -1.79605418952275     -5.22991394444260
  C       1.74658700393185     -0.19941850489288     -0.01654311035032
  N       2.91287354372872     -0.24130223434121     -0.01824369249179
