39
Coordinates from ORCA job orca
  Th     -1.23359955398022      0.55557772483389      0.79365017656521
  N       0.07267730313230      0.12424180492221      2.99402103903612
  C      -0.27975423403617      0.85535029153977      4.05477879569634
  C       0.36899897482229      0.76063898513043      5.27985385046314
  C       1.43143592809685     -0.13118362045268      5.38951501077711
  C       1.79689053698001     -0.89536515600833      4.28538227111859
  C       1.09030494448897     -0.74894836306502      3.09013173873855
  C       1.40611914416542     -1.51818269048743      1.86570420647065
  C       2.39286421718769     -2.50375550256107      1.84312075022548
  C       2.64815210173030     -3.19417500008650      0.66251738999022
  C       1.91243494046875     -2.88006215764497     -0.47398397371832
  C       0.94678112128515     -1.88438867589324     -0.38132170742883
  N       0.69276294969233     -1.22105631986048      0.75580991181125
  H      -1.10946445110648      1.55793463538942      3.91807988641235
  H       0.04916652151143      1.37974162244105      6.11993715002016
  H       1.97827094456634     -0.23239733752324      6.33028302162168
  H       2.63197047486987     -1.59179963055122      4.36303210091315
  H       2.96139796585279     -2.74043782577315      2.74242787127078
  H       3.41798568349838     -3.96943672325587      0.63545569477897
  H       2.07806907399472     -3.39016700268398     -1.42466863120173
  H       0.35917275768667     -1.58679935975384     -1.25439324263547
  C      -2.20092604437800      2.02050200700316     -5.97090383032387
  C      -1.11521903660236      1.22909350702004     -5.58773349737634
  C      -0.95685378832009      0.87355064871174     -4.25473652337918
  C      -1.89143968116907      1.31382305556255     -3.30619755349040
  C      -2.98109760901459      2.10846125083639     -3.69174655315487
  C      -3.13220666103964      2.45934522222763     -5.02717427751257
  C      -1.72744282632597      0.95920762172448     -1.90046487296907
  O      -0.73718812285269      0.23638656508227     -1.50432040690221
  O      -2.53831835446595      1.36775627347089     -1.00768939410024
  H      -2.32178212283884      2.30032304984528     -7.02083316264378
  H      -0.39204275375315      0.89388832768916     -6.33480644799257
  H      -0.11254101965638      0.26113799718624     -3.93068310462798
  H      -3.69387924063320      2.44041600662581     -2.93333005749797
  H      -3.97673971008201      3.07872547568194     -5.33793812870920
  F      -2.81168452993729     -0.39550720517783      1.76193228498319
  S       0.33935006282073      5.16923339888858      2.03881844703372
  C      -0.15357208541195      3.73531908057897      1.63929563694440
  N      -0.53145382124698      2.62560801838694      1.34167813079366
