53
Coordinates from ORCA job orca
  Pa      0.01636304934761      0.11353205364877     -0.00124364516115
  N       1.06780716155420      0.11668185893466     -2.35140851632104
  C       1.65716914327670     -1.17678333347637     -2.68527278190527
  C       0.60627099772268     -2.25696798692438     -2.49707554610406
  N      -0.02757063466991     -2.22571180137452     -1.17180891527710
  C       0.55908770115519     -3.14452262355414     -0.20168135775776
  C       1.89527749241140     -2.57048635892334      0.24714479084027
  N       1.75360961261141     -1.14231442646034      0.32481901905300
  H       0.30165300220911      0.30297728166986     -3.03838676855419
  H       1.76891114135718      0.85540761887560     -2.37117836651903
  H       2.52616161123655     -1.34103708771350     -2.03280753503071
  H       2.00339347273675     -1.21199144566257     -3.73663568319916
  H       1.05089910983885     -3.25253054137748     -2.68845373973490
  H      -0.19184481264105     -2.08910526476701     -3.23700228570649
  H      -1.03966122584306     -2.38618549738144     -1.33590574192545
  H       0.67085302129758     -4.16291323205366     -0.62451759889094
  H      -0.11938500709617     -3.19960649545754      0.66166404969885
  H       2.69768209392587     -2.86925081620900     -0.46519822346937
  H       2.18019680518101     -3.01056036879746      1.22282658119325
  H       2.48855011634222     -0.71865586543447      0.91396522684110
  H       0.39065444459933     -0.81312704790504      3.43226461189578
  C      -2.98107289840562     -0.56324852187771      1.72919822408334
  C      -1.81856334022421     -1.26979579101867      2.41662074711867
  O      -1.94193203569318     -1.82438442508194      3.48440114790340
  O      -0.69990861657896     -1.17754597138753      1.74792608072922
  N      -2.60730373227286     -0.23947664706029      0.37282989325901
  H      -3.19912634542559      0.35287568561521      2.30677532082264
  H      -3.88159625225640     -1.19647882645013      1.81378221428963
  H      -3.17591103287096      0.47839727255613     -0.09004097576249
  H      -2.75570557903237     -1.04841289035215     -0.25898637986252
  N      -0.93199376945408      1.93620693716203      1.62712415948043
  C      -1.79724028322367      2.95680613747796      1.05178065982528
  C      -1.17177731706929      3.44272732690204     -0.23750416647470
  N      -0.97794320252889      2.29607890907788     -1.11565280668514
  H      -1.36369105876613      1.49159040957906      2.43913668587686
  H      -0.06539306794553      2.36247114066651      2.03232477064983
  H      -1.95925723943063      3.80722599315050      1.74028189250483
  H      -2.78858492928202      2.51992432529420      0.83499559857065
  H      -0.19676832131883      3.91095013819426     -0.02004239985103
  H      -1.81231645704291      4.21856718186686     -0.69779719333529
  H      -0.36935557419176      2.54435548366068     -1.89602975809930
  H      -1.88682916882933      1.97905385977322     -1.53621140796068
  O       1.44187284728357      2.19926844465918      2.94184370797516
  S       1.53386891616293      0.76221132383317      2.53252872396534
  O       2.91374147691219      0.20852793671783      2.53950908502536
  O       0.72495548886504      0.02796000654195      3.79640974749051
  S       2.91304129914253      4.27088395124516     -0.38530457854369
  C       2.18400161975223      2.85608939007214     -0.23215873810787
  N       1.60829499592919      1.81672267148431     -0.15260314772606
  O      -3.02111953532114      0.84444491906729     -2.11417682476720
  S      -1.91468712689173     -0.20319171002238     -2.28524817886082
  O      -2.52798704848422     -1.59577179007689     -2.09378066243559
  O      -1.28839100806075     -0.05968149092661     -3.65943901506338
