46
Coordinates from ORCA job orca
  Ac      0.24078894507138     -0.04692408698036     -0.85090946292081
  C       3.99844912228037      3.35986398930738      4.50651769155352
  C       4.41408206015963      2.08959349158736      4.10041829409205
  C       3.79841938375250      1.46592181617391      3.01558507696695
  C       2.76559144012369      2.10585534155362      2.32578325617528
  C       2.35183633023717      3.37610063222722      2.73513606714228
  C       2.96397993941802      4.00149554585746      3.82080269029247
  C       2.08787903280128      1.41890283229837      1.14734295663589
  O       2.47242921407244      0.26921102991743      0.85690493576997
  O       1.17373254160830      2.05542459995663      0.57213005165128
  H       4.47914511247114      3.84982523403918      5.36112051429408
  H       5.22190059226358      1.58119787441393      4.63878798026475
  H       4.08642721744621      0.46954493946884      2.66726730864500
  H       1.53529890515933      3.83597761094231      2.17054190639306
  H       2.63237392293660      4.99601958988391      4.14024893453240
  N      -2.76770599736204      1.07577146269238     -0.22345255106286
  O      -3.90457369911049      1.34548682202830      0.14371574317243
  O      -1.78018083280471      1.70810301854028      0.16939494947638
  O      -2.57160356149664      0.12737993222581     -1.03449761123532
  N      -1.01996244099772      0.98899449244764     -3.61413982945455
  O      -1.48930377747456      1.38091890483882     -4.67554095405242
  O      -0.75793251693957      1.78752742666398     -2.68967822770852
  O      -0.79354722054548     -0.22730940656918     -3.42030126733876
  S       1.95850900312272     -5.27692892306879     -0.39650293041917
  C       1.66034226186714     -3.68360947626821     -0.69727412975943
  N       1.42732507247454     -2.54918674099931     -0.90934094284927
  C      -2.54354859820965     -2.96432239759735      0.68830868241537
  C      -1.87980449021805     -3.37161195750961     -0.61289029849034
  O      -1.56345824545629     -2.27264139948558     -1.42468496532036
  H      -2.70429710635988     -3.84299803065590      1.33840866992841
  H      -3.52206847713438     -2.48515760774265      0.50374470427635
  H      -1.88679747272020     -2.22830370383726      1.18967130103313
  H      -2.52868088448794     -4.08496103837182     -1.17361163323271
  H      -0.93438852785249     -3.90157654719274     -0.41022057900083
  H      -2.27541193217204     -1.60993563060395     -1.37435510711163
  N       2.24680646675579      0.65603696702601     -2.40277106065673
  N       3.19358612722781      1.14231491179949     -2.91276093140814
  N       4.12641986729772      1.61774295889128     -3.42665085434603
  C       1.02702453896909     -1.85247585327060      2.91411301861949
  C      -0.12352829600571     -0.88925019526658      2.61634165985281
  O      -0.40097652894605     -0.79398749358092      1.29248200777934
  H       1.23557053595176     -1.92316509184629      4.00117879638257
  H       1.93034111485533     -1.49991994936788      2.39073831546281
  H       0.79747893008127     -2.86049326120471      2.52751623559875
  H       0.14010436608656      0.10292567412061      3.07057059553384
  H      -1.01777143819763     -1.23367830748239      3.21181099242706
