45
Coordinates from ORCA job orca
  Es      1.08544083939917     -0.32086409299682     -0.75878091630809
  C       1.68620360637304      2.29986350202853     -0.21598309812066
  O       2.01846238509903      3.33064471602430      0.06881043676292
  C      -0.12208705289421     -2.16748363090873      1.77079210210177
  C      -0.23570991716725     -2.04598048784920      3.27785731809476
  C       0.71158811887809     -0.89482063127620      3.59688548247137
  C       0.43666251351026      0.06058789068705      2.45935725342487
  O       0.20618553328821     -0.81248321695998      1.30807143399590
  H      -1.05376588195254     -2.47681466202513      1.27397002289391
  H       0.70428738108377     -2.82645078440803      1.45851042370896
  H       0.03775463661576     -2.98300002533320      3.78338678120197
  H      -1.26680126265632     -1.79451318114823      3.57285433669543
  H       1.76323622273166     -1.22559874433701      3.57659359326549
  H       0.52237324723703     -0.43557838829665      4.57752181477144
  H       1.28414401551402      0.72123277240635      2.21750802964636
  H      -0.47450472537553      0.65985099713710      2.62057623673421
  C      -2.21559205570693      0.25367050879387     -0.95524295057989
  C      -3.19626345121713      1.31979734987554     -1.39778153068169
  C      -2.49056260424862      1.94007861713613     -2.59816193566928
  C      -1.05405573081036      1.98458489684701     -2.12851768412249
  O      -0.89876705556496      0.78382081231027     -1.31241255001276
  H      -2.35243781849522     -0.69306791151659     -1.50413333264258
  H      -2.21864210512888      0.05635318075667      0.12728657615924
  H      -3.34392955264470      2.06745429890635     -0.60206406141787
  H      -4.18011625691184      0.89591100654187     -1.64385221094687
  H      -2.87117842500032      2.93831922752331     -2.85697309751971
  H      -2.58861575413899      1.30004731407982     -3.49002718139095
  H      -0.85882720462131      2.86105387872364     -1.48776544931425
  H      -0.30744645630561      1.94842610591727     -2.93710601825312
  N       3.33770154597651     -1.33660799432633      0.45122075619197
  O       3.03513281928269     -0.08202028230309      0.41936459602717
  O       2.51373543408972     -2.05822267430781     -0.20876790924572
  O       4.26674258893024     -1.76004697106603      1.03143860748823
  C      -0.06597218802560     -4.54968088577428     -3.12773684675986
  C       0.15153054549915     -3.25486963279201     -2.53565055582579
  N       0.33570711645875     -2.21737549871838     -2.05509027747484
  H      -0.11775786739643     -4.45628835185627     -4.22401622331405
  H      -1.01154644568500     -4.97587623641172     -2.75699791994870
  H       0.76593420726881     -5.21995186249723     -2.85800288338462
  C       3.71543935679645      0.75775874754078     -2.72251123135548
  O       2.38210920278556      0.19801157569723     -2.66823930897192
  H       3.72120008392959      1.65417504104814     -3.35850871433401
  H       4.42083852876715      0.00843567434031     -3.10863690860045
  H       3.99863789085403      1.01954359038981     -1.69507468402033
  H       2.14753199157892     -0.14292555760217     -3.54357032141965
