59
Coordinates from ORCA job orca
  Cm     -0.16420210685690     -0.40436565299824     -1.35810177507778
  N      -0.87466085111085     -0.65864105065749      1.14928457563769
  C      -0.02671395607768     -0.22238026274893      2.08260707385430
  C      -0.33865956590619     -0.24214164734695      3.44183206640092
  C      -1.57535488101353     -0.74121217895331      3.83172306012011
  C      -2.46144621666597     -1.18388033317397      2.85419617210077
  C      -2.08176056893760     -1.11882101222650      1.50979416012971
  C      -2.99048587344873     -1.54570285842993      0.41369748808720
  C      -4.31715985755174     -1.92571437006863      0.64718701379790
  C      -5.11658816067003     -2.30424088131352     -0.42578156882922
  C      -4.57734998101199     -2.29704056306252     -1.70759777549749
  C      -3.24987037061557     -1.90471319870035     -1.85703138104452
  N      -2.48362689464472     -1.54300713694611     -0.82761255999062
  H       0.93635292060100      0.18200534786491      1.74078842225094
  H       0.39003909767891      0.13121876825724      4.16441554011855
  H      -1.85750183894970     -0.78335131866167      4.88709410464085
  H      -3.43702035189176     -1.57583753740004      3.14353671771367
  H      -4.73352131142631     -1.91596567718428      1.65476641662986
  H      -6.15605108124055     -2.59791659799122     -0.25814051188597
  H      -5.16574550987953     -2.58432012213354     -2.58116169024501
  H      -2.76389324335572     -1.88654104544803     -2.84012649357080
  N      -0.39205807515844     -0.72653166882092     -4.25439318764972
  O      -0.53439597374361     -0.83600345266463     -5.43671801509559
  O      -0.66131615167123     -1.68127377330410     -3.45443512226305
  O       0.02435182327919      0.33552891584542     -3.71339288830235
  O       1.73054679543163     -0.02414513513361     -0.55385948217521
  H       2.27312437801081      0.35523109382534      0.16090089332753
  F      -1.33780689163184      1.38199402688255     -0.95507396111530
  C       1.35315973240255     -3.09701367025409      0.24527645088380
  C       0.49488736428480     -3.91437650510557      1.21312504842017
  C      -0.61433640483728     -4.49981418504546      0.31174401400339
  C      -0.25060654569967     -3.98473413454159     -1.08150183919166
  O       0.48123923769173     -2.79532867892091     -0.83904636259820
  H       2.20046248461055     -3.69325283905048     -0.14215177092250
  H       1.74205662178606     -2.14255544099141      0.62376082424943
  H       0.06680958465418     -3.26897521107156      1.99587909070933
  H       1.08740456092043     -4.69225226791739      1.71706196372018
  H      -1.60454852664192     -4.12479930558774      0.61497246658603
  H      -0.65614640983972     -5.59878626531603      0.34041185039378
  H      -1.10344156710498     -3.74256317207971     -1.72938212641287
  H       0.39987784734964     -4.70064729825694     -1.61848799152091
  F      -1.47793812899658      4.78625841890938     -3.01386630223619
  P      -1.54878691366627      3.33879537163927     -2.29118133176411
  F       0.05481155618630      3.20569164446630     -2.15466978140420
  F      -1.81589612624525      3.95655209406410     -0.83053744422192
  C       3.04790435667016      4.14966341478341      2.01284966536599
  P       2.25652100006072      2.83874297545094      1.04192730283584
  O       2.60106750585715      1.46102410832248      1.58684926066664
  C       0.49088425028019      3.20785015943835      1.08985803774099
  C       2.81254503918689      3.08365808334000     -0.65881357274396
  H       4.13641255520748      3.98898514600726      2.00389802454360
  H       2.69515785004477      4.08878344077063      3.05346606365935
  H       2.81913615709630      5.14653943593437      1.60609174377546
  H       0.14603569277379      3.11681988103495      2.13206657789086
  H      -0.07387402074102      2.50152585994384      0.45990219653141
  H       0.28061401975505      4.22338499280650      0.72290557767765
  H       3.91178573907087      3.03279458852687     -0.68162407246299
  H       2.46649028371056      4.04389412689265     -1.06818956725338
  H       2.40468590263141      2.25700455450068     -1.26049128898848
