43
Coordinates from ORCA job orca
  Fm     -0.81905813423673     -0.41310618545316      0.31210511947602
  N       0.04512860435905     -0.15603763158980      2.54296420986845
  C      -0.59025654318750      0.59931990832903      3.44839718575400
  C      -0.18682157808217      0.68174970288896      4.77464061980368
  C       0.92748442722917     -0.05362210889155      5.16878337136124
  C       1.59231467760052     -0.83762049261876      4.22975417798942
  C       1.12687565742582     -0.87436238032213      2.91589634778948
  C       1.75917478531544     -1.69380593603091      1.85893121219092
  C       2.85258476291739     -2.52762465660587      2.08877449141892
  C       3.36690624520936     -3.28384982050260      1.03832958287181
  C       2.77734277952470     -3.19422543956846     -0.21957593935211
  C       1.69139206002697     -2.34311758126590     -0.37439088428133
  N       1.20093314346628     -1.60903389165725      0.63297349912416
  H      -1.46566180635094      1.15391329389139      3.09706346067040
  H      -0.73986994430661      1.30534385012229      5.47986608620436
  H       1.27893896916526     -0.02169975258503      6.20332757996822
  H       2.46527575562636     -1.41773330515009      4.53018892424641
  H       3.30186221469072     -2.60186107125155      3.07942170034076
  H       4.22047049911677     -3.94553569952263      1.20682683214253
  H       3.14252354655079     -3.77770798948004     -1.06696545484675
  H       1.18593324977812     -2.25282413279887     -1.34159222334606
  C      -1.74131089759123      4.52909342275661      0.33285733801738
  C      -1.34252944576768      3.14382687757783      0.37981765881677
  N      -1.03747936039820      2.02820974300011      0.41669724943962
  H      -2.83871962653544      4.59428793776859      0.40379065127668
  H      -1.41323222999314      4.98083759607104     -0.61615195891929
  H      -1.28894657190454      5.08029744733309      1.17176996920631
  F      -3.03361093165904      0.10561676497138      1.53590785047653
  P      -4.22880985717713      0.12107351993300      0.38628107106446
  F      -3.11792959960693      0.36326807796897     -0.79789928743476
  F      -4.57062799012821      1.65328532106137      0.57833178077708
  C       0.63323692426837      0.83204073141833     -4.47856797706261
  C       1.35871871171649      1.32139487005157     -3.39122192907218
  C       0.96786861060268      0.95262742119130     -2.11269718067859
  N      -0.07841226934342      0.13893013110790     -1.88632833338230
  C      -0.77455595120738     -0.33718791578396     -2.93537870801019
  C      -0.45165297084222     -0.01131978605119     -4.24622172964865
  H       0.91327117608913      1.10594040796279     -5.49957555733915
  H       2.21729612937056      1.98154702395458     -3.53203364080921
  H       1.51008055213163      1.32088454996472     -1.23394740339132
  H      -1.61224564098756     -1.00639222620353     -2.70839105179246
  H      -1.04338062637500     -0.41803326467944     -5.06915619105524
  Br     -2.09570150650056     -2.66258733131219     -0.07140251987349
