51
Coordinates from ORCA job orca
  Lr     -0.68179811687016     -0.73999389359616      0.29880575250839
  C       0.74172716799986      4.00723910477779      2.21182148406440
  C       0.37958619353435      2.94713312278833      3.03960487747308
  C      -0.01128395440880      1.74721370833492      2.45381806902720
  N      -0.05297112528102      1.57478774394074      1.12554737932813
  C       0.29934635815927      2.59278147203084      0.33036289150136
  C       0.70162759850134      3.82670926967362      0.83071381029698
  H       1.05448204596226      4.96420111046193      2.63809726650664
  H       0.39937295262799      3.04274741267117      4.12731353797026
  H      -0.29972705467219      0.87892741564171      3.05669251517338
  H       0.25878106145780      2.38668522885750     -0.74451427255468
  H       0.97956702893028      4.63079996095045      0.14582762026938
  C      -1.64558533702909     -0.58150718231586     -3.72604065051545
  P       0.01781819349515     -0.27329951911541     -3.12216000232251
  O       0.01316751246035      0.30186731607372     -1.68950583038888
  C       0.81283889281443      0.89921197723485     -4.23651007178828
  C       0.91409700781560     -1.82946811521458     -3.21774030514061
  H      -1.63012114770420     -0.98659957670039     -4.74913172646113
  H      -2.22480609796421      0.35426168776795     -3.71146646069855
  H      -2.07525458384466     -1.31564346553678     -3.02300436640929
  H       0.82197655913876      0.51791510854422     -5.26884377600312
  H       1.84848618436375      1.07341003377039     -3.90735619558569
  H       0.26711492507254      1.85440970311397     -4.20831006005284
  H       0.94016496947818     -2.21076940487239     -4.24972323058622
  H       0.36796398371133     -2.52647584895535     -2.56103525095098
  H       1.94246497547479     -1.69307061235696     -2.85025359319080
  O      -1.37642789081012     -2.19555674971391     -1.05641291172517
  H      -1.75735005593336     -3.07306225741652     -0.97197387533023
  C      -0.79827548415149     -1.34464072188560      4.60998474620825
  C      -1.10945082365500     -2.18696050361015      3.38509146805488
  O      -0.93538826056535     -1.49321414977646      2.20330457899884
  H      -0.92923348145479     -1.92239052424978      5.53879941640122
  H      -1.46615713246282     -0.46840320375024      4.66338340998081
  H       0.24356124057326     -0.98274885358773      4.58120698881232
  H      -2.14780746589842     -2.57046934369225      3.46663711611698
  H      -0.46265736290778     -3.09282163147234      3.40864436856098
  N      -2.92182370513568      0.30729940098326      0.36146185684059
  H      -3.54630695209108     -0.37461912693864      0.79733598811437
  H      -3.32323606195326      0.52111410974232     -0.55277848527707
  H      -2.98698180188484      1.15920702401216      0.92073741286082
  C       4.42764433055071     -1.60434512346175      1.09071258219602
  C       4.03487912233006     -0.67616380032671      0.12781034393468
  C       2.67658092984909     -0.48614466561896     -0.09789282543317
  N       1.73431375134864     -1.15605736963005      0.57729146096470
  C       2.11083207654182     -2.04261441740143      1.50804564529749
  C       3.44758557001377     -2.30094032850327      1.79298809114124
  H       5.48752123674929     -1.78006564883057      1.29353059589090
  H       4.77036040423624     -0.10369621408809     -0.44154908107712
  H       2.30850176866167      0.22823552043918     -0.84194586553943
  H       1.29982267385221     -2.54569588379105      2.04399776424683
  H       3.70945718097349     -3.03471929540163      2.55807979829000
