30
Coordinates from ORCA job orca
  Np     -0.42714681851504      0.33921296574752      0.16585511308845
  C       2.48735201062494     -0.82301014175789      1.37135784691143
  C       1.02024901396855     -0.95910870558885      1.67084454195302
  O       0.43278284174462      0.02346422885278      2.22009567542404
  O       0.32453693668033     -1.66348963358328      0.86715122719323
  N       2.29116720732282      0.10933739670039      0.21679710229258
  H       2.94854319748930     -1.76963811877635      1.06272177896224
  H       3.05262594402147     -0.36136323968673      2.19104627136614
  H       2.74559354540438     -0.25788896978500     -0.62347330864456
  H       2.72777547337709      1.01446909068333      0.40994817332271
  C      -7.41919540908024     -0.04408829818178     -1.27870241727546
  C      -6.59714374790967      0.15796950441935     -2.39659866449560
  C      -5.22608878478857      0.22775623296290     -2.23487971057800
  C      -4.66761573825153      0.09848759704333     -0.94069589047117
  C      -5.50560812441182     -0.10089989854657      0.18140899472091
  C      -6.87683257053376     -0.17318742925687      0.00416495398783
  C      -3.26240805113278      0.15968984339293     -0.71277087147069
  O      -2.69039812860804      0.09568239174967      0.40086538065790
  O      -2.36689004657335      0.29476968723913     -1.71260873081129
  H      -8.50301415640717     -0.10125075814114     -1.41487303897556
  H      -7.03902893509729      0.25965176748301     -3.39029134287929
  H      -4.61018797337400      0.39082312198700     -3.12701545500697
  H      -5.06223848454161     -0.20159997813742      1.17484590066636
  H      -7.53287947501853     -0.33180407643667      0.86309653123537
  H      -2.74673289098450      0.34730249125328     -2.60707866913322
  C      -0.47105173108664      3.69978807012319      0.44100683119816
  O      -0.38670971934003      2.29017946095542      0.25205063140502
  H       0.48909087752014      4.15363187047943      0.15713200252981
  H      -0.68409078441711      3.90384464732233      1.49987185918745
  H      -1.27425547808178      4.10286887948354     -0.19177271636083
