43
Coordinates from ORCA job orca
  Es      0.02703944666065      0.23015290767518      0.04419369124299
  C      -0.95668933243579      0.10492301321495      3.42177023444891
  O      -1.30421200677682     -0.48869077252414      2.19396211575345
  H      -1.52011882351150     -0.35376599607880      4.25904081129124
  H      -1.16081238280409      1.19074666278292      3.40940805592877
  H       0.12417897405677     -0.03066223172314      3.56462540030431
  H      -2.07698969122136     -0.00638275083813      1.84655236342449
  O       3.44106165881767      1.81515041367260      1.15801859849362
  S       2.82129244266210      0.44742765071335      1.07283045387583
  O       1.40961687497684      0.50942636600105      1.82510700447782
  O       2.24057779416269      0.25536371203512     -0.40045106228599
  C       2.07155852209807      3.53752333613727     -1.19269971390361
  P       0.60403584408355      3.13830295737562     -0.16973029171614
  C      -0.66964275617464      4.25696019091824     -0.88526648110626
  C       1.01358001224482      3.95158018594594      1.42250404027034
  H       2.27962325847431      4.62283169605697     -1.20863895000507
  H       1.88977516478304      3.18163350343317     -2.21961244570401
  H       2.91168044982460      2.98236535879218     -0.74474833576661
  H      -0.35665833372449      5.31554149631034     -0.83509731153146
  H      -1.61456650675460      4.11240822269357     -0.33859033632093
  H      -0.82620903299323      3.97682086245190     -1.94046521648867
  H       1.21976917254039      5.03104043479401      1.30559583897096
  H       1.90212233142279      3.41865324065411      1.80172915117624
  H       0.17335804430561      3.80488771657236      2.12027270888579
  C      -4.15690066409820     -3.11539992664432     -3.74217570110224
  C      -3.45817077291466     -1.93027364675051     -3.51046465984889
  C      -2.46444189694065     -1.87334563862649     -2.53190612468447
  C      -2.16053576207393     -3.01332913984454     -1.78097305987322
  C      -2.85415235988570     -4.20248196675166     -2.02576385163503
  C      -3.85187167242773     -4.25638148630552     -2.99607046003249
  C      -1.08079565208872     -3.00626121489010     -0.70601831361022
  O      -0.75827763192919     -4.07737398143698     -0.20557187788490
  O      -0.60808660509718     -1.85455843589214     -0.42276570653686
  H      -4.93943391197805     -3.15188368512721     -4.50787038392878
  H      -3.68517417815731     -1.03418913426724     -4.09649796982776
  H      -1.90309489560075     -0.94650254356362     -2.35911484619856
  H      -2.57236235061264     -5.07213331012245     -1.42524057175277
  H      -4.39518333997569     -5.19065619439105     -3.17591203050657
  N      -0.42212016457627      0.80627955103827     -2.21804533559214
  N      -0.32575402895702      1.60785193334326     -3.08546410807799
  N      -0.23982827479856      2.38573430786423     -3.94152279724251
  C      -2.14692836551479      1.56213857016258      0.60880059489061
  N      -3.03705859709013      2.13172776513863      1.11726687972896
