38
Coordinates from ORCA job orca
  Np     -0.37500139651862     -0.20267260055334      0.70596835410355
  O       0.08467338880434     -1.51013348003357      2.70632646560668
  H       0.75144604535143     -1.44016217380166      3.40845587576251
  H      -0.46490299851194     -2.27934807443386      2.93519217844102
  C       2.90788342127445      1.13746619748562     -1.04796958297919
  P       2.51385932931816     -0.17886960712608      0.14745380670846
  C       3.57921669119126      0.14720394399637      1.59626018507864
  C       3.13322607855612     -1.72401047054099     -0.58494696768075
  H       3.99562131215353      1.15165908806684     -1.22764122619885
  H       2.60546254818423      2.12335702631497     -0.66152851271243
  H       2.39002639737118      0.93503026484357     -1.99781797815405
  H       4.63200832186223      0.20812845847344      1.27353285032890
  H       3.49745544904460     -0.66838202305763      2.33145820017654
  H       3.31255272534002      1.10102411987238      2.07775685918379
  H       4.21278854543090     -1.62554450575686     -0.78533230586870
  H       2.60525688241281     -1.91937473720939     -1.53051670756382
  H       2.97717976454891     -2.57250633008545      0.09865167157031
  C       0.01349600103531     -0.66861758522562     -1.55062137812233
  N       0.25770829049188     -0.68983890109112     -2.69224123193766
  C      -3.85588286918563     -0.62124889801794     -1.02176507667537
  C      -3.34815407585289     -1.57757445076252      0.02592024989754
  O      -2.04974224996082     -1.17048809551901      0.49985360971074
  H      -4.84095211763829     -0.96076540903039     -1.37649659835424
  H      -3.18174651145512     -0.58891955445355     -1.89216232838585
  H      -3.98508695806272      0.39412874590815     -0.61304286850332
  H      -3.22234407918888     -2.59667167816749     -0.37200976796041
  H      -4.00742707150818     -1.62461191965350      0.90688057444274
  C      -1.85867989931767      4.67194172581032      0.00623123382259
  C      -1.91996433257310      4.17682285314474      1.31075203787692
  C      -1.50412166313577      2.87658319986046      1.55060087443967
  N      -1.04213212456690      2.08346420845593      0.56325073333762
  C      -0.98662682195239      2.55974375679260     -0.69864550655382
  C      -1.38472375716438      3.84965386690968     -1.01655687004924
  H      -2.18192859446969      5.69398523043221     -0.21187440197908
  H      -2.28914668948997      4.79166635162921      2.13471007094785
  H      -1.54414776441370      2.45279695767443      2.56069924199485
  H      -0.61750425473899      1.87683222424224     -1.47722019141293
  H      -1.32624496266557      4.19865227460668     -2.05006557233888
