43
Coordinates from ORCA job orca
  No     -0.91843894853456      0.51301382356418     -0.06101812751417
  C       1.79550890651975     -0.93753881998449      1.33731880208073
  C       0.33594191848614     -0.76748878235497      1.72346848849233
  O      -0.47863266108964     -1.58805761512878      1.22055011483383
  O      -0.00544967335688      0.35854466785708      2.17041633060287
  N       1.77201404555074     -0.40427465878970     -0.04610978509780
  H       2.13010155551014     -1.98519235597028      1.38382789527121
  H       2.44192324752906     -0.31860064221501      1.97365688191392
  H       1.83219373931082     -1.16525249570901     -0.72130046613065
  H       2.57727929806195      0.19353190959703     -0.22376444927062
  C      -0.43391101957721      3.80369067441014     -1.11776063916525
  C       0.30587386891930      5.01300731422361     -0.56296197250243
  C       0.76774293454734      4.51800473762725      0.80370625294886
  C       1.13400233980360      3.08123393615002      0.49644383802793
  O       0.14579912096787      2.66083321961522     -0.46334429745753
  H      -0.32502401501435      3.68698322179746     -2.20748805552881
  H      -1.51065433849034      3.82980859298022     -0.87324865726640
  H      -0.33140693253369      5.90764886348953     -0.51587995309718
  H       1.17547208676078      5.25609675575551     -1.19445195728952
  H      -0.05797406091665      4.54970620304124      1.53425742122489
  H       1.60903712387506      5.09272385863444      1.21654058347990
  H       1.08081131063004      2.39650818879501      1.35811385294929
  H       2.13526107428020      3.01075978254554      0.03311312694149
  C      -4.67228827166456      2.77299912792062      2.42724995249118
  C      -3.70354528378716      2.20206295372530      1.51766211712696
  N      -2.92316389267927      1.74235597739051      0.79955504793102
  H      -4.45332464458226      2.44012183107566      3.45286983073905
  H      -5.68567954769824      2.44739905298585      2.14985815758391
  H      -4.62293607907801      3.87113076041229      2.38646240010822
  C      -3.03843253962746     -2.97964521530514     -0.28079195899187
  P      -1.95729419975289     -2.48644605154346     -1.63151883557723
  O      -1.69343723180511     -0.97084618966600     -1.62501532035004
  C      -2.72984970910631     -2.97639376211371     -3.18177798969816
  C      -0.43260061476115     -3.42452094764650     -1.44481350725477
  H      -2.52592947688904     -2.72292353655102      0.66069058864640
  H      -3.24386015357342     -4.06055215279361     -0.30990242787504
  H      -3.98748437099485     -2.42705074622251     -0.35216794517316
  H      -2.92333116331815     -4.05932515871869     -3.20408068720560
  H      -2.06633176552130     -2.70539229710581     -4.01657350548351
  H      -3.67942391477710     -2.43277474105056     -3.29839672586024
  H      -0.62103530868548     -4.50795374428276     -1.48458173194282
  H      -0.01875117215653     -3.15185809000367     -0.45987277401752
  H       0.26682841921897     -3.14757745043808     -2.24843991364366
