29
Coordinates from ORCA job orca
  Cm     -0.31153125029504     -0.44403030571575      0.00826516823978
  S       4.66084023072661     -1.63033148161742      0.06216170454650
  C       3.11548160104692     -1.23691164528155      0.08150149258278
  N       1.95637893675906     -0.94417868233387      0.08887895303703
  C       0.07344612212222      0.77044919951870      5.16621803651583
  C      -0.93696509913937      1.33163488168252      4.38968498450901
  C      -0.99895115503384      1.00813275822936      3.03869538580865
  N      -0.12186645896395      0.17433514843130      2.46373903446567
  C       0.85323178816708     -0.36332556289912      3.20860790267890
  C       0.98691028068908     -0.09264663623039      4.56549792564299
  H       0.15155984232617      1.00724304085251      6.23077792195934
  H      -1.67041931337289      2.01837036506315      4.81684799219439
  H      -1.76209198319697      1.43760791409299      2.38080677577495
  H       1.55481984346243     -1.02250729350100      2.68603822195997
  H       1.79913482622311     -0.55028311967632      5.13373192271189
  O      -1.47117798357423     -2.13937298086787     -0.00983834981179
  H      -2.02092057798431     -2.92217517100982     -0.01327263049180
  C       1.38000698478751     -0.43143907817093     -4.47359970421484
  C       1.16557709438550     -0.61498854535326     -3.10838541018765
  N       0.14409748208522     -0.01228120380592     -2.49180983020935
  C      -0.65233785534763      0.77172077319367     -3.22523248329455
  C      -0.41855008344327      0.94077984939926     -4.58988337731008
  N       0.59051358482412      0.34119740008432     -5.21205050964993
  H       2.21975678080608     -0.92699090842257     -4.97258853236996
  H       1.82445487057396     -1.24029769711013     -2.49738976867549
  H      -1.47258863183953      1.27750630073334     -2.70517667899998
  H      -1.07372597228549      1.58510357181479     -5.18599409903757
  C      -2.31100925062450      2.46130914270203     -0.26493707187795
  N      -1.60127465388411      1.52146996619796     -0.18259497649681
