30
Coordinates from ORCA job orca
  Lr      0.16883525385001      0.60983350194577      0.58986998200485
  C       2.88632291160364     -5.41476256126689     -1.28039229925191
  C       2.06222074527829     -4.70739905421942     -2.15827135118783
  C       1.51137763434409     -3.49463978661293     -1.76368757963442
  C       1.79030118623108     -2.99001134062676     -0.48506432879863
  C       2.61920001537352     -3.70101447679563      0.39458044417196
  C       3.16386513869068     -4.91462526232870     -0.00613181686457
  C       1.21877809712513     -1.70790745151158     -0.07501698941150
  O       1.47792480087464     -1.19082310891211      1.06373494225078
  O       0.43262150242024     -1.05961538956082     -0.85443060161486
  H       3.32137914995578     -6.36727075433194     -1.59456963124114
  H       1.85474484806967     -5.10420606192406     -3.15480080873637
  H       0.87022020664260     -2.91922772224924     -2.43534935336720
  H       2.82949540681914     -3.28858712887663      1.38378415938580
  H       3.81233631886191     -5.47414256040569      0.67210123448288
  O       0.58589599129845      0.59891470597981      2.87660523333829
  H       0.73275000933268      1.25816465193149      3.56868038440368
  H       1.13753872940281     -0.17596877087581      3.07877994790509
  C      -4.94245214022323      0.15128388218593      0.32870867555796
  C      -4.40002080742938      1.26262019289668      0.97247110733208
  C      -3.01989051706837      1.38258006042997      1.04205155566758
  N      -2.19246519743764      0.46330861796866      0.51608958236657
  C      -2.71539586465008     -0.60662136758219     -0.11043592748592
  C      -4.08523938625858     -0.79801925245845     -0.22405551958361
  H      -6.02628879209758      0.02917878838363      0.25462938758200
  H      -5.03653266428982      2.03273668522518      1.41268022023978
  H      -2.55925268974571      2.24797590118647      1.53077895086534
  H      -2.00125731026571     -1.31747057042066     -0.54167890471267
  H      -4.46820990116956     -1.67872862794462     -0.74341245672883
  F       0.84359732446129      2.37084426077073     -0.03614823893521
