40
Coordinates from ORCA job orca
  Pu      0.01091720521785      0.03466618909749      0.53192068358518
  C       1.30535205108585     -4.62895064466087     -4.79157208683950
  C       2.28837440054326     -3.75521983852132     -4.32319153710768
  C       2.02213320018471     -2.92600110774056     -3.23539107852997
  C       0.77446531405177     -2.96678040336090     -2.60840155026278
  C      -0.20571357239144     -3.84420216584454     -3.07668400578397
  C       0.05760773027454     -4.67186735070115     -4.16629472042752
  C       0.47698976488732     -2.04832411415269     -1.44723483940633
  O       1.36728174587020     -1.20860551036433     -1.13660790317493
  O      -0.62271445548697     -2.13904140543289     -0.87459972870236
  H       1.51149310589909     -5.27759573980820     -5.64922991643763
  H       3.26713893588817     -3.72047415683155     -4.81250166997998
  H       2.76223658015611     -2.22426734229895     -2.84114497441765
  H      -1.17101755069407     -3.84542015167929     -2.56314335975959
  H      -0.71540010492672     -5.35394238200425     -4.53433351738913
  C       0.83136666611355      2.79753749948432     -1.20636833786462
  C       0.21924996854758      3.29743206495785      0.10986031459994
  O       0.00589220318104      4.49275086182136      0.25446523147395
  O      -0.04393107204226      2.36117984288343      0.94733200663167
  N       1.43267854917906      1.49834592772587     -1.02199498541621
  H       1.51281531154128      3.57621501268098     -1.59892289400475
  H      -0.01109049982380      2.68967580853726     -1.90791574158242
  H       2.32370944005773      1.52316239007500     -0.52943019164332
  H       1.52309222423193      0.93399890280346     -1.86233134511226
  N      -3.53605584193541     -1.09004064296251     -1.37875922718581
  H      -2.83222567604589     -1.83218197228432     -1.30929816663528
  H      -2.92673433776413     -0.30443940535196     -1.63390447410208
  H      -3.68944642371698     -0.87839906308463     -0.38737334704605
  F       0.46600446087163     -1.67514918645158      1.66826990360432
  F      -1.08734143254162      0.60171855237450     -1.21347715500990
  N       0.11469232840472      0.69223700015373      2.99803986297491
  H      -0.62067879765649      0.38588272080350      3.63690687315001
  H       0.13952837231737      1.71021975502547      2.93819530918503
  H       1.01955598493711      0.34052142464306      3.30046598554090
  S       5.01527661093016      0.96512778783072      2.26343960569298
  C       3.49383499729781      0.66595195178587      1.74880591419026
  N       2.39420189813277      0.45721772804756      1.37256684309697
  N      -2.21492641378116     -0.13928098637783      1.43954577433795
  N      -2.56410121913749     -0.20000117436668      2.57168959385914
  N      -2.90411165185828     -0.24635667645028      3.67870285189865
