73
Coordinates from ORCA job orca
  Th     -0.00383100854637     -0.31061675137678     -0.28437142003557
  I       2.29885271296221     -2.24439738772412     -0.08289498087401
  C      -1.49934925126565      3.98102157291234      0.03794308775995
  C      -0.16664606107850      3.32444928685938     -0.21008875812863
  O      -0.01842640036865      2.10749636283330      0.55352794733713
  H      -1.58634684091034      4.89557649358348     -0.56852700069907
  H      -1.61741548600613      4.28199633034052      1.09178944801681
  H      -2.33071382353111      3.31052752358936     -0.23075343096493
  H       0.67381594840899      3.99254265096381      0.04317502618388
  H      -0.04109676229286      3.01946342985267     -1.25816183693388
  H      -0.04365728471948      2.31919867826698      1.49732558221097
  C       0.23847927404489      1.01200796048215      3.84911915378402
  P       1.16237869064775      0.03270468211223      2.59724484919054
  C       1.75608248232976     -1.37514595266351      3.59301563556662
  C       2.68503594974859      1.02533681112662      2.33611233416004
  H       0.87698412173514      1.21686001763564      4.72334932934218
  H      -0.63497896958225      0.42770068471664      4.17701819888012
  H      -0.11940697636018      1.98452382008249      3.46834041285952
  H       2.41840434645968     -2.00602778223554      2.98257731373241
  H       0.89154084150746     -1.96692494553853      3.92442061935241
  H       2.30780366888772     -1.00256056899895      4.47058395856172
  H       3.15431995781947      1.28073448204566      3.29974101832242
  H       2.45781614513901      1.95470637635459      1.79060124758014
  H       3.39632033052987      0.43266221417960      1.74010177116304
  C      -2.05138866081732      0.42191434346458      1.55406883504598
  O      -2.81327799160018      0.84553188326160      2.26506353838902
  C      -1.89042765266773      1.32620182521571     -2.74855355443519
  C      -2.75298014001468      0.47033321252977     -3.66682901697826
  C      -3.71672819583342     -0.26802270763095     -2.71329872130687
  C      -3.33497136723990      0.22399618300595     -1.32388405945567
  O      -1.96380955771241      0.68007407311427     -1.45608171190199
  H      -2.28729405054496      2.34982545059202     -2.63353831613564
  H      -0.83044180427594      1.37325841811886     -3.03485042920284
  H      -2.13413890761506     -0.24421050358689     -4.22882874918603
  H      -3.28119821451460      1.09426955699952     -4.40139365089518
  H      -3.58704395521561     -1.35749297902724     -2.79107074130191
  H      -4.77245305084011     -0.05097211658495     -2.92822941200963
  H      -3.35776451181800     -0.55605018007338     -0.54852108576027
  H      -3.94183976152718      1.08743395579453     -0.99987148433452
  C       2.74894942887702     -0.38069261738632     -3.64407956203907
  P       2.66169748311338      1.00312181823759     -2.51402264657381
  O       1.40868242074104      0.90826531347527     -1.56442351734843
  C       2.53319277960292      2.52157401386938     -3.46123475401932
  C       4.15828855408793      1.05629765301124     -1.53029063319773
  H       3.62282156963368     -0.25752250972683     -4.30322839641350
  H       1.82944295352216     -0.43170782211644     -4.24523744424963
  H       2.84712615049931     -1.31402848941979     -3.06820277052794
  H       3.41128278388658      2.63247154423798     -4.11675765476394
  H       2.48587299628090      3.38497680399962     -2.78039032583285
  H       1.62773774973643      2.49571905763566     -4.08682417670547
  H       5.03631472839625      1.17022547331676     -2.18532561671775
  H       4.24565072109311      0.11432221676228     -0.96611942548216
  H       4.11463475179895      1.90530137186306     -0.83131810994133
  N      -0.89010430025328     -2.09298935452129     -2.41198992920197
  O      -1.27394681911742     -2.81825899354548     -3.26100722122140
  O      -0.05147283255801     -1.15727598265052     -2.60307617597234
  O      -1.29750849748190     -2.16272419097158     -1.19846257323775
  C      -3.76561735721319     -3.28036637855034      0.70148710187858
  O      -2.89597171441386     -2.23106354771966      1.14493797368377
  P      -1.34125436545817     -2.40250442966037      1.58519022251806
  O      -1.36449395397766     -2.05088999935082      3.17267744137180
  C      -2.28033740992962     -2.68496903620428      4.07587140022302
  O      -1.23157079666033     -4.00447693913910      1.49508414434665
  C      -0.06894858110706     -4.77027405967789      1.81251517163211
  H      -4.73406398219106     -2.80888369476325      0.48903277256747
  H      -3.89281127242360     -4.04329405038155      1.48212166054382
  H      -3.36385557781051     -3.74710584857103     -0.20937907706254
  H      -1.99554008770003     -2.38166196899247      5.09122851344309
  H      -2.21926963830667     -3.78038948501455      3.98936872504635
  H      -3.30835229253259     -2.35269097728675      3.86513083425264
  H      -0.39999635709482     -5.81176502807521      1.91210707827282
  H       0.37725982764082     -4.43992235680682      2.76417144690650
  H       0.67465315399754     -4.69634391046985      1.00577457692351
