38
Coordinates from ORCA job orca
  Ac     -0.28160470481170     -0.07725254258986     -0.20988319264172
  C       0.37373216407223     -0.65377537863322      4.56217353484053
  P       0.28251506892666      0.79412181589311      3.49073975325675
  O      -0.48261044698938      0.45865967638809      2.20889767031231
  C       1.97024499231846      1.34427993688152      3.19216783975777
  C      -0.54321817442145      2.11845040956790      4.38997553509960
  H       0.89686816367657     -1.44471044928111      3.99866965459176
  H      -0.64778210898758     -0.99507495037615      4.78761647798356
  H       0.91149409249939     -0.43294524615159      5.49664730316707
  H       2.49965988340832      1.48393324741432      4.14775477144825
  H       1.93793317641077      2.30560696494315      2.65073080256392
  H       2.48327262758543      0.57663466910368      2.58942919419584
  H      -0.03799306556580      2.32778044919510      5.34537119135946
  H      -1.59000293204551      1.83230616925630      4.57118529638069
  H      -0.50985613178540      3.01690977715381      3.74805198358744
  S       0.59140942869885      4.55336103139505      1.70321441286077
  C       0.33189194721855      3.34263612257236      0.65520425073094
  N       0.15428935364706      2.44106958481375     -0.09358774597438
  I       1.94608924209661     -2.10579196471076      1.07943305937721
  F      -0.90089639931399     -4.32159039908350     -1.22274500661866
  P      -0.39953498418446     -2.90818679028981     -1.78417297688966
  F      -1.30309144765782     -2.89510902226179     -3.09872859715769
  F       0.93179669558712     -3.43650834804265     -2.48956755175069
  Cl     -2.86772927253293     -1.03389574182642     -0.46689142643353
  C       5.26857297884832     -1.14449512451140     -4.14522535269873
  C       4.53318193976433     -0.54080627091649     -5.16772677677187
  C       3.19905009961247     -0.20456741601802     -4.95779418267444
  C       2.58945866727930     -0.46288557229265     -3.72603152372722
  C       3.32800081146341     -1.06991921691045     -2.70638591152377
  C       4.66358353323277     -1.40928468182543     -2.91704863317174
  C       1.14231338754858     -0.07431305668006     -3.54415225174751
  O       0.51674170945210      0.40510552312328     -4.47058716551731
  O       0.65904205037340     -0.28967803848536     -2.35429633529858
  H       6.31742748209761     -1.41066885882818     -4.30866924736223
  H       5.00516998023357     -0.33326831090101     -6.13283813753423
  H       2.59033479245699      0.26600646921360     -5.73431952050843
  H       2.85117098032515     -1.28424053245705     -1.74629205077146
  H       5.23107441946161     -1.88589393384207     -2.11251914474003
