43
Coordinates from ORCA job orca
  Pu      0.27760845107792      0.54908457996247     -0.22711436203080
  C      -0.00075952101436     -3.82323222377478     -1.63733623420931
  C       0.06882368832765     -2.34001587579245     -1.83932708748309
  C      -0.18449110604259     -1.78503681029177     -3.10531608532864
  C      -0.06657341015997     -0.41319421916519     -3.37355519631534
  O       0.21321818794146      0.45634130387650     -2.48898738863187
  C      -0.25175896800029      0.10486748415498     -4.76679770459013
  O       0.38006845681299     -1.65218630360711     -0.81979642806415
  H      -0.24693684425610     -4.36866515483812     -2.55718014836168
  H      -0.75646401159623     -4.04155781269773     -0.86587357566465
  H       0.96488360227277     -4.17834399890141     -1.24379406772798
  H      -0.43173041453891     -2.45681829121269     -3.92764741513166
  H      -0.50734372928744     -0.68369258875028     -5.48582820841673
  H       0.67457766916256      0.60876185572231     -5.08601938032977
  H      -1.04152994029018      0.87263440841813     -4.76071972528692
  N       0.55062442564001      2.74530214708105     -0.16801784048929
  N       0.34093043197330      3.90531219198066      0.06874474093193
  N       0.15777172433674      5.01020276076091      0.27997075110623
  C       5.37791687210644      0.59666955851834      2.19734053070052
  C       5.01742751401636     -0.38117950257032      3.18402327282256
  C       3.69394695715184     -0.66168076100362      3.37735354227023
  C       2.67305155517135     -0.03956187763265      2.60311854334102
  C       3.02751833382342      0.81253372442222      1.44174398840126
  C       4.45767328458508      1.19014535870862      1.39465019122044
  C       1.30368110720795     -0.27027658094189      2.79679699296841
  O       0.41356155043439      0.13248879989304      1.98342132851739
  O       0.83513672545444     -0.95021392828264      3.84368532940568
  H       6.42859398918313      0.89216319725029      2.10906063387521
  H       5.78900767617762     -0.86909507814715      3.78230201079809
  H       3.42164138788114     -1.40350555772279      4.13974118358531
  H       2.37339645588380      1.70001707539489      1.35652431244194
  H       4.75279051140356      1.95956932092401      0.67573013920258
  H       1.55723416322242     -1.10395022245534      4.46617418980718
  C       3.32084647252120     -1.09132576156048     -0.11988695244348
  O       2.62608462122223      0.11383864208592      0.13806020556327
  H       3.04504411544183     -1.42727975315802     -1.12865719611437
  H       3.04968408006461     -1.86881075090435      0.61455536449786
  H       4.40705987399768     -0.91069079268369     -0.07502350147226
  C      -3.03009002016763      0.71403228919360     -0.76628552961208
  O      -1.74552385849374      0.52826098319545     -0.28364236580183
  H      -3.06754951873153      0.59960461729026     -1.86623299512759
  H      -3.40537380919845      1.72200671313882     -0.51407378537092
  H      -3.72077873271875     -0.02582316587794     -0.32328407745252
