43
Coordinates from ORCA job orca
  Am      0.71462105199882      0.89401355790634      0.13837959609071
  O       1.82878767273672      2.60776693860228      0.46291170471431
  H       2.43436107307582      1.78679858346012     -2.08452260948632
  H       2.12709853421037      3.41636102634641      0.88623358405062
  C       1.95303766340905      0.17372442306293     -3.15645547269640
  O       1.81451265200999      1.04657719436275     -2.03566300164697
  H       1.29347767186982     -0.68291234264397     -2.96885356115961
  H       2.99048754062828     -0.18189093576071     -3.24710131225095
  H       1.65079710803809      0.68381048136276     -4.08425076363751
  C      -0.12925107971396     -2.91375785181942      6.24690490828530
  C       0.00106230878450     -1.54044075893842      6.03347065210136
  C       0.49222957220737     -1.07082177199664      4.82092394697557
  C       0.87183892412485     -1.98109897853927      3.82495344138518
  C       0.73306085215489     -3.35979729484565      4.03922837582267
  C       0.22999245746115     -3.82200908628717      5.24992695100874
  C       1.39763005031983     -1.45093665719302      2.55680820045264
  O       1.13019894697481     -0.31555019218769      2.16019658759300
  O       2.19527355382910     -2.18982744499996      1.82604068649278
  H      -0.51913261160937     -3.28115558537018      7.19967463816574
  H      -0.27840666634428     -0.83494196662379      6.81957489073447
  H       0.61077101791523      0.00025181185085      4.63805413975840
  H       0.95695598618932     -4.07861043356732      3.24347989169360
  H       0.10646155022643     -4.89495519699426      5.41353822076891
  H       2.34893137830827     -3.05656327877259      2.23094476356518
  S      -0.85810270204348     -3.41763180732938      0.62767149541691
  C      -0.23109678332125     -2.17516785727061     -0.16530818859139
  N       0.24302177140099     -1.23085475255272     -0.72536483920349
  C      -4.52161726964945      3.10066233445207      0.54629542679557
  O      -3.14418510944836      2.73938295388869      0.46690863342043
  P      -2.67821748188674      1.31858966676335     -0.15777648783014
  O      -1.30290911274256      1.84302003672561     -0.97448222431774
  C      -1.46044799062198      2.63637702872190     -2.15145287304506
  O      -1.64856639736044      0.76126217016826      1.04483160231944
  C      -2.19545677631507     -0.10009260602899      2.05526167111587
  H      -4.80819554207080      3.19205168420062      1.60355184410406
  H      -5.16735129828104      2.35170627564101      0.05771777276939
  H      -4.65706746280740      4.07243238924967      0.05192038372952
  H      -0.47692442653310      2.69133920117251     -2.63540063805725
  H      -1.80098375993746      3.64751996471760     -1.88312623397106
  H      -2.17662923535523      2.16397668242542     -2.84287908898595
  H      -1.40404418622294     -0.25921877598236      2.79809806210796
  H      -2.48301055888024     -1.07090419665379      1.62239134707373
  H      -3.05461288672843      0.38601536727683      2.54304387636719
