60
Coordinates from ORCA job orca
  Ac      0.87342865392120      0.47749175655263      0.69246773781559
  C       4.25730043200753     -5.63722766229134      2.48605050233630
  C       2.99059591210960     -5.69013209256595      1.90205782466235
  C       2.31406894335536     -4.51098855044700      1.60397764317538
  C       2.90438236544128     -3.27548653458824      1.89107222401874
  C       4.17295345574441     -3.22497526225452      2.47738403732338
  C       4.84815633261018     -4.40580434304040      2.77319153514935
  C       2.17861816018622     -2.01400317107579      1.56845191739289
  O       2.71357228009247     -0.89864937567804      1.83824107881976
  O       1.03840722234620     -2.08563814358421      1.01927128981504
  H       4.78848913500619     -6.56422478941860      2.71948994091044
  H       2.53101858458327     -6.65682208908768      1.67927892477034
  H       1.32181558238766     -4.52241990045476      1.14586049158920
  H       4.61021491451842     -2.24674152264838      2.69123505222732
  H       5.84044070365767     -4.36905676969482      3.23048934520074
  C      -1.62916561818929      0.87837210425993     -2.87538290924510
  O      -1.65923707326539     -0.52669730864764     -2.66373492414683
  P      -1.33274545510183     -1.08202600993164     -1.15792482303922
  O      -2.77449418301044     -1.06030096841258     -0.40479477387856
  C      -3.96957637904445     -1.56080708880794     -0.99679553044257
  O      -1.24776795703929     -2.66859969399844     -1.50005327089083
  C      -0.03903916067405     -3.22493098761174     -1.98810427130368
  H      -1.48314966533954      1.04648616362463     -3.95133725219165
  H      -0.79090629330984      1.34474358864251     -2.32614621559775
  H      -2.57766677296600      1.34246190747037     -2.55913189238422
  H      -4.79397768226079     -0.91585370001245     -0.66108129177652
  H      -4.13699838014261     -2.60026766397532     -0.67670274771027
  H      -3.90188757085543     -1.52256312179626     -2.09475128476617
  H      -0.14606302578748     -4.31746622889785     -1.94140774640021
  H       0.81761034031608     -2.92549341588972     -1.36067428041829
  H       0.13898872152463     -2.92764579912753     -3.03450319238533
  C      -4.57321407535417      1.78459888292848     -0.12609399897489
  N      -3.48070587645856      2.04949079373977      0.20010239235329
  N      -1.32274925045992     -0.46237928737201      2.16410885529887
  H      -1.68528484905893      0.07122921499009      2.95494969653258
  H      -1.06690097024656     -1.38902410637883      2.51059046655239
  H      -2.10737126678544     -0.60738070048728      1.51739879047794
  C       1.93163783719525     -0.26577643614838     -3.48084094911847
  C       2.05648859521415      1.01506944091376     -2.67404583384608
  O       1.59426498939698      0.86640589138280     -1.37816571522810
  H       2.31573321635521     -0.13529286492155     -4.50604989586057
  H       0.87738683514783     -0.58224363277946     -3.54577913875614
  H       2.50278232129480     -1.07825771797651     -3.00096926033846
  H       1.50130648750317      1.82391645443933     -3.19705443586222
  H       3.11880748582561      1.33703404510247     -2.67081903302808
  C      -2.02414586327478      6.44995680380943      3.71272637090947
  C      -0.82507760929328      5.90579969765942      4.17540285134184
  C      -0.27935793921090      4.79239491168069      3.54510340326795
  C      -0.93471295317239      4.21426131639665      2.45127851213285
  C      -2.13360810152889      4.76616598293163      1.98688607934353
  C      -2.67588153584648      5.88196853458380      2.61800961373069
  C      -0.33755275640337      3.01347577156192      1.80500166693605
  O       0.78852333020999      2.60417337146950      2.18382418641953
  O      -0.97571006766081      2.40049944213558      0.88445951591012
  H      -2.45285655749642      7.32539964493164      4.20836795089245
  H      -0.31393205796480      6.35416944147817      5.03131804711913
  H       0.65915886188192      4.34729729525205      3.88365484110774
  H      -2.64094955403512      4.32481888389981      1.12674475940808
  H      -3.61192875873918      6.31215066542346      2.25282570156818
  H      -2.49023643985684      2.25634493274245      0.49807142108023
