35
Coordinates from ORCA job orca
  Cm      0.76362074581455      0.61713760117960     -0.69517471065280
  C      -0.62734266672865     -3.66013093985000     -1.79900551390483
  C       0.19606026055417     -2.62589591755796     -1.09693995383094
  C       1.30461443193590     -3.02333570821212     -0.32549766413272
  C       2.06465270435775     -2.17024775105586      0.49426625913130
  O       1.89328719047276     -0.90652806744825      0.56275354492976
  C       3.13630254908647     -2.74090929457312      1.36839465927472
  O      -0.18074549662116     -1.41492349661487     -1.22665753971633
  H      -0.18815245250822     -4.66419934732070     -1.75037654738701
  H      -0.77350639613053     -3.36606312425707     -2.84995250142810
  H      -1.62813098766980     -3.68955830716560     -1.33612053985840
  H       1.53612514700085     -4.08844291197229     -0.29081066442068
  H       3.27149345828264     -3.82082699912740      1.23236333759830
  H       2.88149643933567     -2.54014645983505      2.42188711240581
  H       4.08692870732394     -2.22066583975609      1.17048818771993
  C      -4.21857678694570      2.33521157082035     -1.10098990862481
  C      -3.13270793715155      3.20805147929704     -1.10889345606264
  C      -1.85122631580112      2.67761585673083     -1.02390627883296
  N      -1.62577540902679      1.35585801464745     -0.93197771469328
  C      -2.67173904060773      0.51496558443864     -0.93594306765091
  C      -3.98378298298732      0.96402617771582     -1.01629105648240
  H      -5.23976618362981      2.72003059646163     -1.16691966438582
  H      -3.27014450060911      4.28851674497005     -1.18582046238102
  H      -0.96293083728096      3.32059990746537     -1.04818791239038
  H      -2.42922370124705     -0.55133346462131     -0.88884702414313
  H      -4.80652324981549      0.24606324889049     -1.01660393964166
  N       0.94415381280846      1.68455395162513      1.60456441375176
  H       0.11904279416044      1.84291903365756      2.18596537560719
  H       1.37762389533634      2.59962077429539      1.45277117153878
  H       1.59742999185604      1.13222568309092      2.16489522306519
  N       2.39668236673324     -0.23305424736309     -2.44856907933849
  H       2.65747566758188     -1.21573159138315     -2.33391418085144
  H       3.25614576517322      0.31966029471740     -2.40445031107753
  H       2.05892062980608     -0.13236021570805     -3.40852840611437
  Cl      1.75111838714058      2.86559716381843     -1.49467118701991
