37
Coordinates from ORCA job orca
  Lr      0.60570326389626      0.57436473368162     -0.09958386637664
  N       0.44857910487418      0.27540527882102     -2.53690343602717
  C       0.65933243323317     -1.13173260554148     -2.96771887452075
  C       0.02436198845417     -2.07069177542899     -1.96831286442794
  N       0.59006895386807     -1.81216409445647     -0.61603880057486
  H      -0.49639984726114      0.56321377565470     -2.81837889085912
  H       1.05454873892892      0.88840876120364     -3.09455271192459
  H       1.74496882797031     -1.31543098776151     -3.03552914456014
  H       0.25129435888023     -1.31255822385832     -3.97506903367408
  H       0.17630419019447     -3.11783580470049     -2.27567253163559
  H      -1.06682844624854     -1.91217225619744     -1.92167005415043
  H       1.53155671837061     -2.22286132215289     -0.58328474011185
  H       0.07479708462115     -2.36791510302929      0.07600626455189
  C      -0.50344713412845     -0.71582977288922      4.74958985568861
  C       0.58257204021429      0.10418634337094      4.44007166445097
  C       0.82484208900561      0.40949496783494      3.10944862118728
  N       0.05597614251513     -0.05330891713768      2.09870490256453
  C      -0.99966269316265     -0.83709704750670      2.40971306572393
  C      -1.31011888523390     -1.19154175991375      3.71320179678862
  H      -0.72132635832939     -0.97939298747993      5.78926444309032
  H       1.23445601756336      0.50332977166145      5.22126099832492
  H       1.66913471775951      1.05849244917695      2.84598903273745
  H      -1.62628304027972     -1.18559352552229      1.58042830509825
  H      -2.17281504752960     -1.83124534644099      3.91581963383126
  O       1.03200985486079      2.88753675626184     -0.26562654456511
  H       0.32788793662221      3.55292856934435     -0.17351209267993
  H       1.83306993802515      3.40483856226961     -0.45585854528316
  C      -4.13062526977677      2.02587381188711     -0.50431363093379
  C      -2.75386160870934      1.62851130280869     -0.40292549150170
  N      -1.64020895699132      1.30555474169386     -0.32496710883437
  H      -4.48557261510437      2.40196661355518      0.47039059148048
  H      -4.74719408182425      1.16130605023779     -0.80465152490539
  H      -4.23611651491236      2.82283351301327     -1.26033843531219
  N       3.05064296976679      0.51336367459503      0.26130878662537
  H       3.62658598920885      0.41344997379329     -0.58505961600797
  H       3.34271966538450     -0.27769880108529      0.85059160415997
  H       3.45964747527406      1.32731068023747      0.73747837256290
