44
Coordinates from ORCA job orca
  Bk      0.02529678267842     -0.01325364996395     -0.08065850550471
  N       1.65126810517846      0.09182427856265      1.87614816622814
  C       2.61469410820033      1.19096628519602      1.74269705693469
  C       1.86728253380529      2.47057251604404      1.43527696058801
  N       1.10463973406990      2.32363976933200      0.19086697790620
  H       1.11351287446167      0.20483002358208      2.73899260542459
  H       2.12983610193566     -0.80770788624345      1.94495834946951
  H       3.29831846214784      0.94518422562592      0.91247194768826
  H       3.23319860320092      1.32244660224901      2.64770085527655
  H       2.57269327284423      3.31830992603182      1.39850372894733
  H       1.15415410281586      2.68119358856342      2.25002233132822
  H       1.69467972425552      2.55014222157146     -0.61930399473082
  H       0.34646579576887      3.00664902357583      0.18459535698265
  N      -2.37837123316669      1.11050177737949      1.11759093533468
  O      -3.35857749161433      1.60684708049535      1.57144391917844
  O      -2.42418585791609      0.17124016770135      0.25150575945730
  O      -1.20768626348590      1.46311748917868      1.44682290795447
  S       2.47592989018017      2.17340248000233     -3.07290646202873
  C       2.21814062921848      0.82603750079585     -2.24351118301798
  N       1.95183328062564     -0.12964851320816     -1.57741234077210
  C      -0.58210081161785     -2.54529595433023      2.52925960415928
  O      -0.98619316161757     -1.65094105281630      1.50684996802559
  H      -1.17562559404600     -3.47266902174405      2.50169980314741
  H      -0.67610006423789     -2.08650251087833      3.52737357047350
  H       0.46954547787769     -2.80018986616597      2.34351092738758
  H      -1.93776608081253     -1.47499084093163      1.54326257259606
  C      -1.99443999034330     -3.45544804836245     -3.71033235673279
  C      -0.66064356870817     -3.05883308610968     -3.77836650201027
  C      -0.18578397024316     -2.14545027830390     -2.84398192896504
  N      -0.95625379587563     -1.63244706365000     -1.87181359289832
  C      -2.24220507649152     -2.01083421599453     -1.81438629512214
  C      -2.80040111715364     -2.91650286088942     -2.71113328012888
  H      -2.40169754153027     -4.16989445205035     -4.43066614096870
  H       0.00877691305204     -3.44385371337627     -4.55066088264627
  H       0.85063371574930     -1.79128785847411     -2.87557242374102
  H      -2.85216488075163     -1.55540213835529     -1.02847650930655
  H      -3.85477952221313     -3.18728392481507     -2.62379967474410
  N      -0.84634280434352      1.47852405623508     -1.96296765317521
  H      -1.46326960106725      2.24480957943783     -1.68597916080722
  H      -1.39635545753852      0.90484512712126     -2.60570964285226
  H      -0.08948148789879      1.89555407614954     -2.52138915311805
  O       1.44099085192556     -2.14748312951098      0.05135615035817
  H       2.00316099194670     -1.77012500845965     -0.65960725958651
  H       1.11317342073488     -2.99279272019715     -0.27997551198896
