43
Coordinates from ORCA job orca
  Bk      0.32256874439563      0.16547597200030     -0.05985222214491
  C       1.10901079681099      2.61495690143821      0.89938529330010
  O       1.55985298162314      3.47038324882550      1.47164012632132
  O       0.73699544087118     -1.75542386209071      1.28753158928756
  S       2.23802255807577     -1.45687879258322      0.92350859683307
  O       2.25067000915867      0.12152205177871      1.19412574799265
  O       2.12515341703413     -1.45281760925486     -0.63846409185408
  N       1.77391750737414      0.94345179593087     -1.99521217212316
  H       1.43452946776850      0.92216640441800     -2.95835931437849
  H       2.38398498163541      0.12184781737176     -1.86570187581021
  H       2.36942405909370      1.76805462230572     -1.90759995421921
  C       0.09908525921576     -3.87597402998781     -1.15218813723022
  C      -0.53216567201958     -2.58724610039640     -1.27188108010659
  N      -0.99762207360837     -1.52697320289390     -1.35391000951307
  H       1.18551979921380     -3.69225680537818     -1.18927908055809
  H      -0.21352701407159     -4.54152998869455     -1.96960786708492
  H      -0.15897613018356     -4.31699702285898     -0.17832174086012
  C      -3.62868389127947      3.16406483586664     -2.00493238052899
  C      -3.85171556468039      2.05488419759633     -1.19310908248424
  C      -2.75443649022171      1.35483187917591     -0.70465264969321
  N      -1.49304006991119      1.70365978008739     -0.98811656381442
  C      -1.28217790074768      2.76956387244605     -1.76921862515506
  C      -2.31694868593737      3.53061101376560     -2.29899881311910
  H      -4.46871199463447      3.73797089901359     -2.40495610710095
  H      -4.86276272421618      1.73138064597148     -0.93738049387473
  H      -2.89013181431610      0.48320486516249     -0.05542851927433
  H      -0.23791059710205      3.02405371628048     -1.97967197411023
  H      -2.09521316448443      4.39342609617732     -2.93031922191774
  C       0.56938731477634     -0.33026933948461      6.56466021905059
  C       1.29011132804516     -0.01986391680745      5.41058854140104
  C       0.64888626404459      0.04259499319259      4.17838029659288
  C      -0.72451585076936     -0.23024961243238      4.10582944336920
  C      -1.44849559873724     -0.54249993570874      5.26751637917779
  C      -0.80099592921374     -0.58672942445070      6.49594820625902
  C      -1.38624992754884     -0.18517569573107      2.79639105087136
  O      -0.98680355525194      0.49793117195371      1.85362187809801
  O      -2.47829525749409     -0.89694998854989      2.61009957456126
  H       1.07970311419058     -0.37172712562497      7.53043710332510
  H       2.36409203087043      0.17165160967604      5.47128507651500
  H       1.21447749148920      0.25511972572273      3.26546367905537
  H      -2.53111235763966     -0.70847131751695      5.23261101694387
  H      -1.36541580889008     -0.81367238091593      7.40321971198356
  H      -2.64678449272792     -1.47110196479615      3.37241844601705
