54
Coordinates from ORCA job orca
  Cm      0.64583125406258     -0.06268209234682     -0.48561308718382
  C       3.14798223051312     -0.57054688132514      1.76580354326473
  C       2.94615630726372      0.33750098327093      0.57028975170856
  O       3.09277784930632     -0.18929004155671     -0.56606180409060
  O       2.21931677989399      1.35588720213394      0.73417192568134
  N       1.89226906739538     -1.34536645719547      1.63779366540794
  H       3.16460985784813     -0.00397394300230      2.70540974522703
  H       4.04649628864382     -1.19754461536338      1.68284067963235
  H       1.40973461776038     -1.45043009430183      2.52840641281499
  H       2.07577297063939     -2.28249343985552      1.27897456325465
  N      -1.38771285116312      0.51496303068011     -1.94699017515700
  C      -2.59134636780923      0.03116107628560     -1.62250421294946
  C      -3.74845661238082      0.35236820032989     -2.32382866634351
  C      -3.64079066037948      1.21484197212352     -3.40915587499647
  C      -2.38832585993767      1.70867388869897     -3.75726458607356
  C      -1.26951164461081      1.33653193325181     -3.00704226240461
  C       0.09845002063868      1.80234965732214     -3.34159030828397
  C       0.35861093208689      2.63251195542137     -4.43357129883274
  C       1.66984819035671      3.01327862969143     -4.70406849698164
  C       2.68991749280639      2.55532463600964     -3.87914285982945
  C       2.35451586661246      1.73275673822670     -2.80772067385704
  N       1.09445950866190      1.36902944255871     -2.54576048955332
  H      -2.61275227231965     -0.65930159612749     -0.77338416958304
  H      -4.70778443186213     -0.07152311545093     -2.02101966170596
  H      -4.52319523291030      1.49853903998976     -3.98821731832134
  H      -2.29085698069121      2.37719859953384     -4.61247905458029
  H      -0.44782722504617      2.98066397143038     -5.07886796958593
  H       1.88779795897409      3.66011977448453     -5.55758106785465
  H       3.73363477925369      2.82183508821786     -4.05570388087862
  H       3.11303467067725      1.32768968228733     -2.13065644066658
  C      -1.92852357235199     -6.58457409776845     -0.55949393710003
  C      -0.82744457853115     -6.24331928096982     -1.34693715476624
  C      -0.33584803989502     -4.94261464812523     -1.32609101391017
  C      -0.95058578323365     -3.98057496212044     -0.51459809564930
  C      -2.05546008108888     -4.32523230065216      0.27405424263915
  C      -2.54325002474347     -5.62698541518685      0.24967648947394
  C      -0.42136523842506     -2.60328805697587     -0.48699341081102
  O      -0.96739505913640     -1.71212162894372      0.24073075795470
  O       0.59186754007451     -2.29408258929482     -1.18764326901005
  H      -2.31075660174338     -7.60883977018594     -0.57447097334802
  H      -0.35126509750389     -6.99814101834672     -1.97760840144925
  H       0.52560195268260     -4.65046256670364     -1.93133447681600
  H      -2.51659049008405     -3.56133911576415      0.90445600158734
  H      -3.40323848962340     -5.90245111815151      0.86507098879941
  C      -1.16846322410012      3.18626475004618      2.49193978530116
  C      -0.40893400457537      2.46813504181430      1.56833527754156
  N      -0.71572867450609      1.20126744607604      1.27050972850455
  C      -1.75715960629715      0.64809330388246      1.90212698459356
  C      -2.49678698008491      1.38162661047195      2.82914650501954
  N      -2.20778141339747      2.64545622351009      3.11730251673498
  H      -0.91633126622149      4.22552365387263      2.72877169605914
  H       0.47061826042811      2.90158189657057      1.08302740327732
  H      -1.98319883687182     -0.39597776243378      1.66383187057776
  H      -3.34553719505464      0.92328217995610      3.34852455751817
