57
Coordinates from ORCA job orca
  Lr      0.34752154945141     -0.80110018074632      0.03629893269725
  C      -3.04185451219481      3.58436007238182      4.76785287352656
  C      -2.53163774950451      2.28888798313949      4.90929004026900
  C      -1.86887712309112      1.69124659848963      3.84975456163737
  C      -1.71385925051240      2.39505310630175      2.63837411235653
  C      -2.22585333320191      3.69980175230507      2.50314270765096
  C      -2.88864854451140      4.28789180631464      3.57039268352933
  C      -1.01060033143849      1.75824055223750      1.55006870928160
  O      -0.91237699246511      2.46770251904292      0.41840958002155
  O      -0.54618014564200      0.60865654581641      1.59804435759261
  H      -3.56385341825861      4.05306430663297      5.60652094024740
  H      -2.65196893135182      1.75471648850963      5.85450555496574
  H      -1.45113585507697      0.68625502011932      3.94654159794404
  H      -2.10085898127736      4.24016958150105      1.56287150938069
  H      -3.28950668340645      5.29933852121087      3.47412754520964
  C       7.09267442197053      0.20269673424375      1.87442433458609
  C       7.02946264337029     -1.17921838154106      2.07264497635089
  C       5.83219688623192     -1.84920922955491      1.87096928734726
  C       4.68594821446374     -1.13770492373568      1.46733287991695
  C       4.76206378298957      0.25130770633794      1.26171420138685
  C       5.96202789563003      0.91612439945623      1.46941969996589
  C       3.41099022384261     -1.80488563948534      1.24814918057752
  O       2.41501077311255     -1.23234906191804      0.77325384965822
  O       3.25828267294483     -3.07305283190209      1.55296558589938
  H       8.03783401799252      0.72791295445984      2.03568860399205
  H       7.91987044606850     -1.73194323427712      2.38018168293035
  H       5.82599787487657     -2.93611041291645      2.01481613948967
  H       3.87065366984891      0.79717526923112      0.94440703627270
  H       6.02377869343348      1.99574400530887      1.31573888791598
  H       4.05462696564018     -3.44699990712577      1.96313781499329
  C       0.19418088247366     -3.57535277657848     -3.66958122468301
  C       0.10269497029313     -2.51652245550772     -2.76359220676881
  N       0.63817995852341     -2.62286591640964     -1.53857500109386
  C       1.26008692792406     -3.76954362835808     -1.22355850271254
  C       1.33280860933445     -4.81352813950162     -2.14322640632899
  N       0.80035784699536     -4.71333839323892     -3.35646133320435
  H      -0.23967585620051     -3.48757756910255     -4.67163689018259
  H      -0.39711040435917     -1.57418213865250     -3.01044337027300
  H       1.71110395364856     -3.85441360596211     -0.22883935805880
  H       1.83714113217970     -5.75137511166115     -1.88518381395641
  C      -3.25828736811081     -1.34494672294569      1.33720590584312
  P      -1.81174581009958     -2.39697663804013      0.97977249183621
  C      -2.42178633721369     -3.62926252431011     -0.22043332599758
  C      -1.52227609046392     -3.34101350700179      2.51520252219577
  H      -4.11563967713321     -1.96002502570933      1.65361684578785
  H      -3.53822599978000     -0.77851308506619      0.43508079202449
  H      -3.01078279139425     -0.63141512478492      2.13770540510390
  H      -3.31246897363568     -4.14142810288652      0.17709647047696
  H      -1.64366797526081     -4.38044341339593     -0.42642604128830
  H      -2.69102221339394     -3.13080339087191     -1.16457258517967
  H      -2.43373038534975     -3.88531031167628      2.81007559774182
  H      -1.23829333311274     -2.65726384412878      3.33005987051747
  H      -0.70869854626674     -4.06804840480062      2.36832961861799
  F       1.08235730334950      3.80065109478732      0.04858989520957
  P       0.27582966202456      2.68122273787103     -0.73067076226438
  F      -0.57628373295093      0.15218750875211     -1.49553362642335
  F       1.29642536804446      1.45681636934285     -0.19234083453347
