44
Coordinates from ORCA job orca
  Am      0.43654811060723     -0.44568983234402      0.49333519112689
  C       7.35901805231288     -0.05632951506939      0.70020170681888
  C       6.60172701297417      0.98604220484517      1.23916936234142
  C       5.21443822471843      0.93621833216935      1.17785486855694
  C       4.58716541884779     -0.16364997237934      0.57665465320249
  C       5.34828736792857     -1.20763182749694      0.03330853469175
  C       6.73526841201117     -1.15033391153639      0.09705213640933
  C       3.12460554109483     -0.22806457936458      0.51732701855211
  O       2.39693579547344      0.69683954265225      1.01145639199797
  O       2.53123875732315     -1.22721006072443     -0.01776411267437
  H       8.45037610798142     -0.01405185140589      0.74908214618121
  H       7.09950096786611      1.83992512662103      1.70477735440485
  H       4.60114452343158      1.74305505594538      1.58579638629510
  H       4.83649855447160     -2.05217252487538     -0.43373492068955
  H       7.33673543546351     -1.95928796037910     -0.32436928650566
  C       1.30816186496810      0.61669072231534      4.26838599368558
  P       0.03298541704353      0.98605153467236      3.01387370106059
  C      -1.55024477270352      0.95018501972385      3.92406670272104
  C       0.30154193549645      2.74801948511101      2.61790535238359
  H       1.25258417520483      1.32745601597047      5.10825873886169
  H       2.29842569100731      0.69170266629615      3.79328929328668
  H       1.17803971815254     -0.40534653717381      4.65616441951292
  H      -1.52322819744060      1.63124885201133      4.78958953103364
  H      -1.75729272599243     -0.07120508780601      4.27815725925910
  H      -2.36650862281940      1.25748261119613      3.25249668880354
  H       0.26517565129754      3.36702639269407      3.52850949967566
  H      -0.46787383370292      3.09082031017922      1.90924219935430
  H       1.28705039646053      2.85209776042063      2.13868303352368
  C      -3.68542032604156     -3.77722449585283     -3.41429740242255
  C      -3.11444001586203     -2.53754563711017     -3.12279256627041
  C      -2.53212973746403     -2.31289828097099     -1.88116475231675
  C      -2.53695086683059     -3.33408534348225     -0.91821552072424
  C      -3.11271297624412     -4.58091260160156     -1.21643003038482
  C      -3.68162621666850     -4.80025380406835     -2.46391970347557
  C      -1.92350260827302     -3.08111537739894      0.38971276917267
  O      -1.09794054856348     -2.18106640657886      0.58430701806098
  O      -2.24562774700398     -3.82684373797932      1.41508492442590
  H      -4.13660493906523     -3.95123811343526     -4.39455663199054
  H      -3.12457206174207     -1.73869583522642     -3.86788349319645
  H      -2.09940563412325     -1.33483484459989     -1.64732552041384
  H      -3.08396861478559     -5.41006840984990     -0.50047123396869
  H      -4.11485715762069     -5.77427285972474     -2.70194195755514
  H      -2.95725588655379     -4.44519458968006      1.18925226594229
  Cl     -0.93518964263604      1.05866236529134     -0.97402800875443
