40
Coordinates from ORCA job orca
  U      -0.34927632008654     -0.40403915746222      0.25600358770892
  N      -0.27569994055186      0.24284386435253      2.62868944887889
  C       1.08260667235035      0.69469366915920      3.07762943926040
  C       2.14189492521050     -0.09579858579239      2.34726293815622
  N       1.98247394588144      0.04585190153209      0.85849134432812
  C       2.36286381319411      1.40059569393880      0.32761482172787
  C       1.15904695183297      2.09124083920395     -0.28331752783725
  N       0.54738546582264      1.22500110809776     -1.32363775695903
  H      -0.97206097252314      0.95063121329779      2.90713504108680
  H      -0.54390192715058     -0.57558657006057      3.19978229310412
  H       1.19473093056667      0.56899326293733      4.16749291531620
  H       1.16597357490573      1.77684524929520      2.88540429146694
  H       2.07826790865614     -1.17180637133597      2.59064429330163
  H       3.15273509903510      0.22967091906582      2.65044406059954
  H       2.62837204790970     -0.63957046526938      0.44404529932300
  H       3.16350521996829      1.28479282114881     -0.42299316786659
  H       2.78930127591951      2.02288233542122      1.13120689699239
  H       1.42740303602692      3.08736752156217     -0.67990257467624
  H       0.37664070347308      2.30741133588572      0.48619834025413
  H       1.25195957416058      0.93986396384916     -2.02212835848964
  H      -0.14375443076018      1.75592587950426     -1.87674832514673
  F      -2.74909575678323      2.06526306948185     -1.38742833989268
  P      -3.48795625434534      0.93682968452176     -0.60330919006750
  F      -2.32184366241307      0.96613578377395      0.70485599246946
  F      -2.47563322825937     -0.29922651355073     -1.17496178478370
  C       0.62198560276687     -7.17419944712791     -1.33684887356209
  C       0.95975085503070     -5.91633348821147     -1.87805486649218
  C       0.57204045173027     -4.76737546600797     -1.22794957944219
  C      -0.17394811378644     -4.85259963525196     -0.00888447238110
  C      -0.50686867938533     -6.14191778146640      0.52367792113655
  C      -0.10978882651029     -7.28264727663981     -0.13687042477264
  C      -0.58378753302448     -3.69687216235755      0.66637675825986
  O      -0.27244950421712     -2.45827362770050      0.25031611861696
  O      -1.29094997203703     -3.62368597231724      1.75087834696103
  H       0.93510888398593     -8.08624274060658     -1.85850043187791
  H       1.52626555714055     -5.86418786952305     -2.81174343409182
  H       0.82910499255611     -3.79344901811182     -1.65063303957272
  H      -1.06837706425947     -6.26094730479694      1.45729229837755
  H      -0.35776082896402     -8.26925676400515      0.26562484022595
  H      -1.58646447306675     -4.48432389843349      2.10764486035940
