35
Coordinates from ORCA job orca
  Am      0.03803944275027     -0.05364738524370      0.01788486787739
  N       0.58852960913933     -0.02068868757041      2.48018639479002
  C      -0.39305844968805     -0.07137178555548      3.38386889197722
  C      -0.15872181805976     -0.10494023441811      4.75355982493210
  C       1.16228131052476     -0.09491046366634      5.18897996689159
  C       2.18760255193673     -0.05279677338715      4.24933253681835
  C       1.87167521445367     -0.01378524878045      2.88970097760603
  C       2.91145670986579      0.03839521436713      1.83215663306378
  C       4.27016065987495      0.18088389990795      2.12222411963076
  C       5.18947181684159      0.23691336294990      1.07919812882094
  C       4.73423041135748      0.15892517580587     -0.23274595343882
  C       3.36656560568640      0.02654256165307     -0.44151953144823
  N       2.48465741196057     -0.04157194043302      0.55800251739198
  H      -1.41789480525986     -0.08964959487947      2.99690787173899
  H      -0.99484791986524     -0.14249346018066      5.45420809733730
  H       1.39795656416751     -0.12449500113155      6.25565406680478
  H       3.22562310908003     -0.05805965899738      4.58210615853725
  H       4.61746735809263      0.26029145263643      3.15240679159307
  H       6.25503989674015      0.35001132274175      1.29375375982243
  H       5.41821265269895      0.20879158003809     -1.08193240056233
  H       2.96198799233145     -0.00873070696098     -1.45864313640373
  C      -0.63825221086544      1.58886395218921     -2.89956789479225
  C      -0.30715186909395      1.97267363153247     -1.47492508541636
  O       0.89671842321087      1.85074002437684     -1.10802210003807
  O      -1.23945552138629      1.91435051536266     -0.62430393826197
  N      -0.64618788656990      0.11660269750903     -2.72409108479164
  H       0.15174005264244      1.90082255186881     -3.59471321671398
  H      -1.60968962770910      1.98226367946085     -3.22978628852361
  H      -0.12214587695719     -0.35439116802561     -3.46012724170418
  H      -1.59942589433113     -0.24731336160534     -2.75892037003836
  F      -0.73981633226490     -1.94966634140701      0.14846573837937
  F      -4.10914395780933     -1.01086229555494      0.83773357359138
  P      -3.09339871224622      0.04158869514224      0.23852405780790
  F      -3.27779131169651     -0.30976198201206     -1.31088201296714
  F      -4.00783459955272      1.32347577226736      0.29352527968800
