27
Coordinates from ORCA job orca
  Th     -0.26140926212777     -0.24387982849966      1.41559564658480
  C       1.05682782955974      2.84441894617669      0.52036098196238
  C       2.16262450125713      1.84086760229132      0.82588150488124
  O       3.32145765095884      2.06657048286935      0.73018181077435
  O       1.64069716781486      0.66604278960232      1.26789147833369
  N      -0.24524862216024      2.17603707788966      0.36335151576823
  H       1.34802187863232      3.44142280795539     -0.35764302697833
  H       1.01515526115536      3.54029273759496      1.37460795395739
  H      -0.39097305437580      1.91890439436472     -0.61834618743738
  H      -1.01055509923632      2.81964518221541      0.57947486417059
  C      -2.47367098873636     -5.18842432155107     -0.55188320851746
  C      -3.53335238757651     -4.35989691075925     -0.48241331313928
  C      -3.36561303151570     -2.93411504653749     -0.63497091538408
  C      -2.13344513268311     -2.38690198922868     -0.77014936696663
  C      -0.87524708721386     -3.19592656679075     -0.68002271241401
  C      -1.11924656569273     -4.68401770282031     -0.97210516976238
  C      -1.84089786530172     -0.99195818729476     -0.46436363235845
  O      -2.43947728444089     -0.35262519340317      0.46431244991922
  O      -0.68442770663562     -0.51961163133895     -0.79585207535244
  H      -2.58518626955472     -6.26388686413030     -0.38827600539865
  H      -4.52900732386072     -4.75492421933134     -0.26896492723907
  H      -4.24049521263020     -2.28043201990542     -0.56874861240420
  H      -0.09907105702335     -2.81827486524938     -1.35972709197430
  H      -1.10482468929874     -4.76742377112982     -2.08104989700552
  S      -0.15760728509742     -2.87022595659488      1.04072071812782
  C      -0.02837379369007     -5.52803100831249     -0.48887557030249
  N       0.82644542947379     -6.20804593808172     -0.10958721184501
