72
Coordinates from ORCA job orca
  Lr      0.08604053501621      0.13194531621052     -0.09501802443831
  C       0.69589253130688     -2.94674393322402     -1.09888159332950
  C      -0.60364042971485     -2.97813895928127     -0.28624837292590
  O      -1.08575371066820     -4.03542234088562      0.06040620640455
  O      -1.07819745653800     -1.80011294343848     -0.02254103947620
  N       0.86754256187029     -1.64791105824071     -1.73311175681763
  H       0.69766176071887     -3.80525242444970     -1.79289312643892
  H       1.51770838175939     -3.09713089404782     -0.37960969715103
  H       0.21435378770288     -1.52716617468981     -2.50600640735162
  H       1.80834712132872     -1.50270939415515     -2.09417967273205
  C      -2.06533252608409      2.02018939905181      3.52432941077934
  O      -1.67540304274908      0.67719501433551      3.68733760782245
  P      -1.65075660979396     -0.32597428857136      2.39237969826387
  O      -0.43108011615320     -1.31063196773527      2.83730040613058
  C      -0.26485957712443     -1.75685928962772      4.17233783632938
  O      -2.98350327274373     -1.17797755479308      2.82699156397522
  C      -3.50692823310266     -2.21761894672497      2.01460459134620
  H      -3.08700027036782      2.10658952150894      3.11122678649149
  H      -1.35418392421493      2.56150710280418      2.87582949915407
  H      -2.06102065450746      2.48543712718016      4.52061790901448
  H       0.39808316798572     -2.63326008751238      4.14079667045533
  H      -1.23346814301473     -2.04830242323056      4.61028859593826
  H       0.19719496395203     -0.96664952280745      4.78322940042759
  H      -2.71929334365024     -2.87950227341523      1.61701664478306
  H      -4.08350995250600     -1.80162377246880      1.17116778455184
  H      -4.18961810724621     -2.80351250917713      2.64750189227415
  C      -1.43325892423881      4.61619168516110      0.16348795904390
  C      -0.70123128136570      3.42904293582061      0.12527915623787
  N      -1.31259029415658      2.25717969515087     -0.04548415946890
  C      -2.64448910079445      2.25476826123958     -0.14996074449089
  C      -3.35836764327142      3.45359642958416     -0.09596227033311
  N      -2.75798337088964      4.63138066569881      0.05017644173890
  H      -0.92325339543800      5.57763947608515      0.29049977083530
  H       0.38594342934994      3.40857484955078      0.24602367729038
  H      -3.13728194259589      1.27943551567664     -0.28854440887345
  H      -4.45142032715436      3.44842456414040     -0.17461012503654
  N       0.67407703627092      1.43730557784070      1.76989347579609
  N       1.36061057501444      1.12492244041827      2.69136764796619
  N       2.04236225600126      0.83651161134894      3.57616925583644
  C       4.19049816247062     -1.44284906015169      2.16241044002872
  P       3.55285631289697     -0.51998442225920      0.75677805242094
  O       2.04558019605974     -0.75282609285742      0.63379013817006
  C       4.04588815794811      1.19775916095691      0.96925023271993
  C       4.39165089955643     -1.08815764213473     -0.74120973375513
  H       5.28009146566452     -1.32765015315418      2.26284052707795
  H       3.93344010839318     -2.50608419544697      2.04384262104280
  H       3.68178248820468     -1.04108662731351      3.05436786695213
  H       5.14410972777204      1.26694744660858      0.92492352425649
  H       3.69390679022444      1.54980476830285      1.95083735490444
  H       3.60321995980066      1.79333922293270      0.15673410521398
  H       5.48472790652661     -1.00018714140051     -0.64781641321046
  H       4.04586862984195     -0.45428713715373     -1.57492622964698
  H       4.12874624096406     -2.14022165117835     -0.93254543960875
  C       0.13248471841932      0.57200157344084     -4.66979173221756
  P      -1.10607108117956      1.18454590959185     -3.51333451594095
  O      -1.10513488587772      0.40346205696924     -2.19269091781988
  C      -0.80519699952199      2.95056142109631     -3.32905460067458
  C      -2.72072508789649      1.00702160585425     -4.30121899205341
  H      -0.02895712876147     -0.50284473994506     -4.84496703093506
  H       1.12530043077883      0.73978555050406     -4.21924003878863
  H       0.06511970877638      1.10748869357449     -5.62914182892305
  H      -0.83025710017928      3.43761333191800     -4.31614398571837
  H       0.18856927246947      3.08520945242790     -2.87457915438016
  H      -1.57737054567207      3.39589357999908     -2.68381021197041
  H      -2.76306567479113      1.54818131312086     -5.25836974892869
  H      -3.49287665324287      1.39978175114319     -3.62161354509862
  H      -2.92433941174110     -0.06126376985922     -4.47139882618282
  C       1.67974794531740      1.33724491637476     -1.57546341656175
  N       2.47318440586311      1.61677354049070     -2.38978726943863
  O      -3.37037132347747     -0.67679082331865     -1.00691678707387
  H      -2.81681187975133     -1.30124920936134     -0.49960443046316
  H      -2.70418821404912     -0.33616906010271     -1.62635850341945
