40
Coordinates from ORCA job orca
  Ac     -0.47813846043882      0.22337709592276     -0.05515701913199
  C      -2.84146817693685      4.56758565691760      1.93072276205713
  C      -2.19977566586037      3.38356411907425      1.41018514564359
  N      -1.68625782470706      2.43535708913889      0.99210768719179
  H      -3.91225851227283      4.36970508297985      2.08928927606650
  H      -2.72670154188001      5.39589161328189      1.21541685979924
  H      -2.37896390433712      4.84888276436780      2.88878913031987
  C       0.76231135040090     -2.39033063219053     -0.75575757238396
  O       1.19641856064456     -3.39009863634230     -1.02555215101869
  C       6.64516452289387      0.59581283753351     -0.16198778050429
  C       5.97451218190992      0.26385974215638      1.01668747064356
  C       4.58600781896171      0.19657332720657      1.02849939112991
  C       3.86727483887881      0.46426720800177     -0.14426365090860
  C       4.54262949486788      0.79775602088458     -1.32578940692762
  C       5.93119335996763      0.86253239071071     -1.33192408099807
  C       2.39686408415640      0.38603209426397     -0.13255825809831
  O       1.72139700589129      0.62714726823515     -1.18763951734129
  O       1.77798170665449      0.06700665469514      0.93568766936045
  H       7.73723686165043      0.64651416367053     -0.16923525524717
  H       6.54020108377523      0.05573743251530      1.92806832456293
  H       4.03947613686605     -0.06339845922596      1.93790988494191
  H       3.96446270379864      1.00145653536529     -2.22980669177657
  H       6.46361881252089      1.12075006538229     -2.25049450825005
  O      -0.65979279610575      1.10649435135481     -2.46644536536617
  H      -1.20384742191273      0.55592149861652     -3.04929564046666
  H       0.21579184365807      1.19484856618636     -2.87410260444971
  C      -5.34693135333401     -4.86704846611584     -1.15940650301710
  C      -4.84437482729429     -4.64661417872377      0.12444502795649
  C      -3.88375727248842     -3.66343639509381      0.33346915181340
  C      -3.42546001248280     -2.89992693683332     -0.74824219031916
  C      -3.92978685841592     -3.12439198173036     -2.03619208822561
  C      -4.89109785756034     -4.10770226268577     -2.23891500650343
  C      -2.40556012270123     -1.86053836648665     -0.53006787732046
  O      -1.94384705738687     -1.64218837290956      0.63843520686947
  O      -1.96639533773771     -1.16657872113599     -1.50613886957995
  H      -6.10223328570896     -5.64074057529718     -1.32116728401879
  H      -5.20493069115526     -5.24669901374340      0.96332036413317
  H      -3.47480438775348     -3.47314232081935      1.32841662145996
  H      -3.55668661216176     -2.52012647995194     -2.86601799927326
  H      -5.28837238686424     -4.28711177917540     -3.24089265282208
