29
Coordinates from ORCA job orca
  Cm     -0.13209880939675     -0.56652756478291      0.10941767838175
  C      -0.74770859643132      3.50579183274339      5.68099732826213
  C      -0.52024755053975      2.13576913218987      5.82909530176533
  C      -0.37639600004989      1.33372459699228      4.70414542704707
  C      -0.46078763140131      1.90936694704244      3.42765421163472
  C      -0.68996134954058      3.28538804302079      3.28066451182230
  C      -0.83222903294130      4.08068668095648      4.41057367272010
  C      -0.32183354998463      1.06281117385437      2.24366924810200
  O      -0.40037007929778      1.54789677397541      1.06285477981254
  O      -0.13193066795294     -0.20137630803049      2.36242619331444
  H      -0.86266211459516      4.13420759563734      6.56815745805220
  H      -0.45792527588552      1.69558938315993      6.82698834378010
  H      -0.20171105057573      0.25918828278577      4.79456578261079
  H      -0.75754158200466      3.71195993068019      2.27738503763797
  H      -1.01177022241286      5.15335187607369      4.30683983896146
  C       0.54218590826955      2.16913100298969     -1.97489368330565
  O       0.37210282681252      0.74806859673719     -1.81853439026335
  H       1.52996567891834      2.38550623135396     -2.40635391972505
  H       0.46080600506510      2.60879211230232     -0.97289132944505
  H      -0.25204363346611      2.57436857998432     -2.61785715643203
  H       0.35623747486035      0.31129078972001     -2.68360914067841
  N       2.06174864208620     -1.79225917363876      0.18520808143620
  H       2.92850235959428     -1.29686997257997     -0.03999644425903
  H       1.95527313357492     -2.53166354014251     -0.52353636899730
  H       2.24022122357190     -2.27144615955817      1.07300423934762
  C      -0.21043696845354     -2.87229823824675     -1.70108364509372
  N      -1.06285067168211     -2.27726146825030     -1.13494511588954
  C      -2.81777975517981     -0.55038249875073      0.73308367279156
  O      -3.91535871096140     -0.60640463821899      0.95327038660870
