37
Coordinates from ORCA job orca
  Am      0.38520671570946      0.91265155872024      1.49752446849752
  C      -1.24195473074432      2.48923861383436      4.05660164531309
  C      -1.06751457966620      2.66007802648094      2.56590056855507
  O       0.02571514743045      3.13996212283528      2.16126331023521
  O      -1.73142633913108      1.88544954558952      1.81274094253133
  N      -0.37556778249648      1.29090845420479      4.23248050951104
  H      -2.28342110030988      2.27478458008181      4.32854881998245
  H      -0.87168466730377      3.35367935233605      4.62321478623005
  H      -0.88182182391743      0.54562518448974      4.71081438262066
  H       0.42498477767941      1.51555216947421      4.82443213841791
  C       5.98311416757325      0.00060411196069     -2.44345400913599
  C       4.90580737186229      0.73860838980506     -2.93943406459439
  C       3.78936371769699      0.95325472192856     -2.14144424105711
  C       3.75595545361103      0.42245750972548     -0.84356670565238
  C       4.83801698418876     -0.31735761145926     -0.34574230725359
  C       5.95112196306002     -0.52646668286354     -1.15033582234439
  C       2.57776889775372      0.64092248204215     -0.00771833487260
  O       1.56846557402540      1.29065963188512     -0.43811744260657
  O       2.51068977960159      0.16331691185909      1.18487393606064
  H       6.86170466773155     -0.16398670691010     -3.07306165232177
  H       4.94305437559040      1.14947307141218     -3.95104606227146
  H       2.93651337257388      1.53233618842957     -2.50333869605015
  H       4.79030928407729     -0.71725488278917      0.66974788335663
  H       6.80037908333380     -1.10022924049887     -0.77202438961797
  C      -2.37813816702055     -0.87449817364147      0.38406936715857
  C      -2.74992784344868     -1.34982646447150     -1.00244429323977
  C      -1.53321989416129     -2.18323135729024     -1.38850293934060
  C      -0.38577987049374     -1.35366514084756     -0.84636342103769
  O      -0.93820985964510     -0.66699091795242      0.31705381240718
  H      -2.57413685080094     -1.64564207876505      1.14827044775234
  H      -2.83778230697033      0.07432795722645      0.69217818869809
  H      -2.87197830537868     -0.49210644180955     -1.68375241370479
  H      -3.68858240227917     -1.92196221442718     -1.00563302202634
  H      -1.44165858495907     -2.35085103394696     -2.47095270879068
  H      -1.56708736124578     -3.16825807471244     -0.89576237259942
  H      -0.04483781639879     -0.58396971423122     -1.55788761916017
  H       0.47985895287184     -1.94939384770476     -0.51743268965003
