50
Coordinates from ORCA job orca
  Cm      0.00628355255281      0.22170884671770     -0.31939531160414
  N       0.84809385821256      1.94335158347331      1.43943558877151
  C       1.67847586847182      1.45413185874045      2.54344186786692
  C       1.27786234317305      0.03954278115828      2.91434414907549
  N       1.36752155740997     -0.85604138002606      1.75710392359972
  C       2.74136858430701     -1.27026244800581      1.46733317654325
  C       2.86964267812394     -1.77331651554969      0.04635441020032
  N       2.36943242270839     -0.74679119443991     -0.86700392229083
  H       1.24491401922299      2.79606505617947      1.04161097439038
  H      -0.07858434021804      2.20962695816402      1.78318076078414
  H       1.61355488118892      2.09850958450278      3.43760037924215
  H       2.73110312222356      1.48471762528232      2.21800317965120
  H       0.23380044317563      0.03062425649610      3.26715445419449
  H       1.90306871173114     -0.31230869193730      3.75662525895705
  H       0.81338945972503     -1.69261363676130      1.98166198605215
  H       3.10198737692232     -2.03394105549848      2.18102558624270
  H       3.40545326971139     -0.39745030547852      1.59043666308309
  H       2.26545813299896     -2.68731974802455     -0.08321431323522
  H       3.91668602164536     -2.06029518471181     -0.15590048514268
  H       2.35444890240818     -1.05973848572602     -1.84039427721477
  H       3.00393898844828      0.05678137533914     -0.88763133946830
  N      -0.34596346747348     -2.31383678479675     -0.81833214305415
  C      -1.65571777022244     -2.61539278989371     -1.42024415467846
  C      -2.04461193610559     -1.53516436918372     -2.40551611995110
  N      -2.09196133143103     -0.24722045007199     -1.71400647691583
  H       0.39358702395411     -2.65980193578527     -1.43238104247062
  H      -0.27199787816250     -2.84501314178609      0.05862288085790
  H      -2.39163571208164     -2.66725040616835     -0.59989766205892
  H      -1.66514683658484     -3.60218045433487     -1.91343312505517
  H      -3.00286628428672     -1.79613436243555     -2.88834043553889
  H      -1.28886755941647     -1.45685266038557     -3.20643884467862
  H      -2.90220540098258     -0.20630678452287     -1.09246638314639
  H      -2.16878278863539      0.52009675142524     -2.38443233468721
  I       0.80499763852861      1.27915950572948     -3.05760830598211
  S      -1.40064103918934     -2.89391881720268      2.41096713714269
  C      -1.60603801309393     -1.40865691308206      1.81641906857627
  N      -1.66236826913546     -0.32140431536015      1.33149883067955
  C      -2.82141985537724      2.38943019484829      0.13605471706135
  C      -3.14176519633586      3.86165947703862      0.28521727672826
  C      -2.28560524827944      4.47124670250060     -0.81750296293408
  C      -1.01333295325033      3.65351341311356     -0.71295204381007
  O      -1.43260863329212      2.34687356357582     -0.25722681967063
  H      -3.43280015690616      1.93920253254435     -0.66762655075742
  H      -2.93862308521336      1.78424102937773      1.04574192587088
  H      -2.82533033663517      4.22981422824744      1.27583764765460
  H      -4.21610386310495      4.06893556970195      0.17778073038257
  H      -2.10124509483203      5.54789841691467     -0.69405096844490
  H      -2.75870833212204      4.32202889968132     -1.80206620697901
  H      -0.32874900549182      4.08453715286014      0.04160487189299
  H      -0.46598846898377      3.53121546755582     -1.65949521573222
