48
Coordinates from ORCA job orca
  Fm     -0.32293460652668      0.03874137186676      0.12963265071190
  N       0.33425346098689      2.47507783127443      1.45543429583410
  O       0.33615032576393      2.36768803523174      0.20749926107805
  O       0.08203834241074      1.40385681171668      2.04010949494733
  Br     -0.42642546777811     -0.80846966132443     -2.42552928281669
  C      -2.06118660669350      3.12445509531300     -1.73387214994248
  P      -2.92305036640211      2.39857153744196     -0.33609735467680
  O      -2.28445985622680      1.05414939791238      0.09175101749630
  C      -2.90364415334389      3.57930647525752      1.01819011614402
  C      -4.63482674205732      2.11271303882172     -0.80192480045129
  H      -2.00404130812738      2.38124154956492     -2.54505064879489
  H      -1.04099184413645      3.38400816295503     -1.40974455749390
  H      -2.58453802349730      4.02582830804204     -2.08747409053873
  H      -3.42338388831690      4.50620838721503      0.73131732398727
  H      -1.86108827212901      3.81311872379101      1.28343647650743
  H      -3.40210352944391      3.13398260238129      1.89244035850047
  H      -5.12537536204109      3.05313135925973     -1.09485570486818
  H      -5.17092770682810      1.67274821214977      0.05241630030463
  H      -4.66360601277944      1.40717324970591     -1.64598546314082
  C       6.95945578073165      0.03703087312308      1.05018570837367
  C       6.72418043118675      0.40527906196447     -0.27536810015124
  C       5.41902159026638      0.53194567236311     -0.73592730888099
  C       4.34406296988272      0.28535163706500      0.13104397757063
  C       4.58582049806987     -0.10255497154608      1.45575108145468
  C       5.89274791164945     -0.21716359844123      1.91360888341271
  C       2.94665898340228      0.41581081728371     -0.31151147315762
  O       2.01365706812051     -0.09806478889920      0.30337185089156
  O       2.67425333213999      1.10912690796732     -1.39297821145433
  H       7.98667949646220     -0.05655456958380      1.41186523831861
  H       7.56159795866421      0.58721927875214     -0.95269800220086
  H       5.25557331925247      0.78661593681335     -1.78907063177767
  H       3.73603372609590     -0.29427699083242      2.11484765777907
  H       6.08421358877112     -0.50528482849808      2.94986538493564
  H       3.46045213970939      1.55652967171108     -1.73802855146431
  C      -0.61163981163559     -4.19915739843590     -0.47325098218677
  P      -1.69770534098854     -3.18186445210582      0.52852764650503
  O      -0.98245875985556     -1.87878849650201      0.96361889980898
  C      -3.16606468845631     -2.80406562643652     -0.43488420980591
  C      -2.17985851420333     -4.10344099561720      1.99174179689245
  H       0.28971475389270     -4.44676887596828      0.10769454890400
  H      -0.32280910280319     -3.61449204618863     -1.36250528709345
  H      -1.11612394572931     -5.12682591258066     -0.78325406478928
  H      -3.70213704223227     -3.72339411115539     -0.71532226268418
  H      -2.84712183419507     -2.26554039971102     -1.34292927265372
  H      -3.82780969307115     -2.15638446381290      0.16022247186951
  H      -2.69166869812720     -5.03874501528512      1.71991478281946
  H      -2.84979080896795     -3.48101420840542      2.60373808187597
  H      -1.27949369086570     -4.33525859561405      2.58043710410062
