73
Coordinates from ORCA job orca
  No     -0.10000378437055     -0.65279488508905     -0.21107644317515
  N      -0.62179875526337     -0.46551634133293     -2.78236135376292
  C      -1.79305692099012     -0.86035495533244     -3.26881294940061
  C      -2.23584476380570     -0.52303569754819     -4.54619015130550
  C      -1.39842349574853      0.24478187287799     -5.34824806808102
  C      -0.16480570138923      0.64199320186200     -4.84586179563669
  C       0.19124776065870      0.27324664689229     -3.54331706649254
  C       1.49070626793485      0.66896870734135     -2.94452546336170
  C       2.25540000322451      1.71679129130858     -3.46690977541266
  C       3.45329149951742      2.05256240943765     -2.84690756245145
  C       3.86700997878174      1.32255976583691     -1.73851498038990
  C       3.04223067986540      0.29315562024619     -1.28893206122619
  N       1.88411308731373     -0.01486866320960     -1.86411062499927
  H      -2.38672169422390     -1.49666223474614     -2.60022670700280
  H      -3.20802998224716     -0.87296701665588     -4.90074431743467
  H      -1.69413613098986      0.52338303853101     -6.36371736890388
  H       0.52245369482929      1.21973348740953     -5.46598289915107
  H       1.89386904886400      2.29852780057022     -4.31598678701885
  H       4.04905536842410      2.89061955451437     -3.21920852072463
  H       4.79138498076604      1.55441732002986     -1.20456214393462
  H       3.32177343362485     -0.29562319811450     -0.40859468711165
  C       4.56114473918878      4.13023148297148      1.93606594911730
  C       5.18722495282810      2.96392532759306      2.38236167048583
  C       4.49967056192901      1.75273370968265      2.35295503061192
  C       3.17880704018619      1.70451805017181      1.89766868717502
  C       2.55340095877027      2.87293168665030      1.44986004694845
  C       3.24827842443422      4.08148015265453      1.46560468653755
  C       2.45900280140330      0.38210690585358      1.80178191754308
  O       3.14754076448943     -0.65993995139907      1.91367591986951
  O       1.22868457914582      0.41919445325054      1.54230509483053
  H       5.10375446003511      5.08083346314667      1.94861565039320
  H       6.21857067340939      3.00100255640419      2.74665194225774
  H       4.96495699408761      0.81548312903663      2.67001098366514
  H       1.53118705967069      2.81180305152046      1.06259672924972
  H       2.75995912328310      4.98779667023053      1.09566938789536
  C      -0.28640732411666      2.92632872809616     -1.06931742283359
  N      -0.31938344856145      1.78695958602252     -0.77217171098530
  C      -1.32526333780427     -1.45969079950625      4.45231133392602
  C      -1.24161742255863     -0.94604358939327      3.15678961839445
  N      -0.82898707464566     -1.71455117102735      2.14699778965574
  C      -0.49996492265853     -2.97466839689503      2.42655260287935
  C      -0.58889205398943     -3.46805943668343      3.72870911517815
  N      -1.00232419965449     -2.71656072282174      4.74524554562148
  H      -1.66382314000953     -0.81973608278669      5.27582674702661
  H      -1.48635000242827      0.10515224581220      2.93360782755541
  H      -0.16778596707016     -3.59073021132886      1.58413617440077
  H      -0.31343703609276     -4.50705297618427      3.94529259517252
  C       2.47015662252788     -3.14129140711236     -0.31251789513143
  O       1.71749038402578     -2.23803929206814      0.44681933104026
  H       2.88227939201628     -3.95785700490193      0.31217377712610
  H       3.31690617218758     -2.64991690105991     -0.83091545018111
  H       1.82304828699252     -3.58721664114791     -1.08306783083242
  H       2.29680911074191     -1.75091901479197      1.10882938304100
  S      -1.41511454055502     -3.30483404383828     -0.87885163114368
  C      -0.51806459130857     -3.67062206820899     -2.23394461089995
  N       0.11968666710468     -3.91807213134420     -3.18744579873603
  N      -1.07947279913348      2.17864192187419      2.29156137184884
  H      -0.91772742844731      3.04028903124928      2.81341764241059
  H      -1.23030573611867      2.46957485812167      1.32153013917006
  H      -0.16430391948050      1.71410241493787      2.23329973800924
  C      -3.56816592699733     -1.08696931813530      0.61262546052027
  C      -4.65570897143981     -1.12675839286095     -0.45665783779744
  C      -4.56061059372004      0.26848972109998     -1.10598693843473
  C      -3.33534445037475      0.89955174130251     -0.43127364768894
  O      -2.60345547680835     -0.19438639187719      0.09696932188160
  H      -3.08618073566834     -2.05655791763061      0.79428218523214
  H      -3.95750360200521     -0.69255844251924      1.57406479443566
  H      -5.64833593828298     -1.34305297542239     -0.03231050135052
  H      -4.41599727466070     -1.92159738516638     -1.18067795770624
  H      -5.46408677560630      0.87573294436771     -0.94009026396373
  H      -4.41307517396413      0.19110703071584     -2.19434771004085
  H      -3.63361032395355      1.56311495372773      0.40390617398717
  H      -2.66397415511911      1.46267912478839     -1.09280343038999
