45
Coordinates from ORCA job orca
  Th      0.46544393918041     -0.35175123741031      0.52699624751781
  C      -2.84798990514916      5.22750815381144      2.96440026371156
  C      -3.65829642072334      5.03209025525722      1.84245864073585
  C      -3.55611834932666      3.85466253438515      1.11566228124775
  C      -2.63698488094088      2.86674620725944      1.50969005856720
  C      -1.81211785022914      3.07455536347415      2.62694429490200
  C      -1.92820625664507      4.25336553281465      3.35394042856326
  C      -2.49986172251717      1.61830705429407      0.76214233502246
  O      -1.53180181818514      0.85771425275391      0.91404476563415
  O      -3.40814024012118      1.25220625838228     -0.10155380461545
  H      -2.93425248249893      6.15451890370432      3.53729783163222
  H      -4.36527048867635      5.80488286426057      1.53258802014818
  H      -4.17549314251441      3.74043028029471      0.21864866801345
  H      -1.09111511996411      2.31028980183075      2.93175287991112
  H      -1.29517067553653      4.40938986566843      4.23049523619753
  H      -4.15613219882559      1.86858595055643     -0.11671301710598
  N      -1.10229276923406     -1.89152025332916      1.87717039098951
  H      -1.60606477762207     -1.41070412726239      2.62563764315089
  H      -0.57171306956011     -2.65001668807201      2.31183916242728
  H      -1.79978125697409     -2.33236090774182      1.27145423243036
  S       3.13274880506027     -4.53429673335045     -0.15937457837787
  C       2.16065180409354     -3.33887925642113      0.15798488366181
  N       1.43365945413926     -2.40409824444972      0.39266153093176
  N      -0.87437894429832     -0.42069619026434     -2.10683719220198
  O      -1.15195637844685     -1.21057349011592     -1.19377543518321
  O       0.02046648993943      0.41216036383795     -1.76139124584737
  F       0.45233327983246      4.57012820608956     -0.39111720187267
  P       0.45211828503494      3.23680739063844     -1.24332287219437
  F      -1.12559138457771      2.99061202150039     -1.22086407077333
  F       0.78180238781313      2.25411962788445      0.05774860775234
  C       3.18704951714896     -0.28229361813819     -1.61367351761506
  C       4.69420599554845     -0.36649066649492     -1.46742612770982
  C       4.86641242885010     -0.72595942372510      0.00504111472304
  C       3.79959005328465      0.12369481864115      0.66094694437445
  O       2.71146240648201      0.14460023374174     -0.30429557314448
  H       2.73827380719062     -1.26673784139780     -1.82983704664753
  H       2.83482875669209      0.44793206237545     -2.35594872943518
  H       5.15983060837214      0.60731495104532     -1.68912790798645
  H       5.12820479096874     -1.11204249131336     -2.14860691151953
  H       5.86910526062849     -0.49949218230135      0.39421836269122
  H       4.66746412773101     -1.79757034804235      0.17082104190627
  H       4.12231504965925      1.16439088558537      0.82731461515711
  H       3.41245514413241     -0.27991260932772      1.61232766255588
  C       0.88480222828601      0.46205919493362      2.87347899544524
  N       0.76700551249824      0.98772327413638      3.90925809222806
