28
Coordinates from ORCA job orca
  Pu      0.48823062836456      0.24187722089431     -0.17621063151237
  N      -0.26994870785347      1.64446226679383      2.09454921663646
  O      -0.60290868507851      2.24812089020692      3.04366667851066
  O      -0.76162464169146      0.50572343933308      1.76220569228560
  O       0.62441360631383      2.04756717248455      1.26628081761235
  C       3.11928169969146     -6.07218818634295     -0.70700965504362
  C       2.00970861438424     -5.72313525130203     -1.48210369388171
  C       1.46890863666557     -4.44937263230149     -1.37819849754766
  C       2.04809783535372     -3.52627927112602     -0.49152526333064
  C       3.16343736462334     -3.87710954997697      0.28681713449146
  C       3.69561894349822     -5.15408310456621      0.17476710549352
  C       1.48958444121766     -2.19444740258395     -0.37715915541582
  O       1.97735543288835     -1.30962559978658      0.41868819220837
  O       0.46896194045344     -1.81511985088788     -1.06230263247058
  H       3.54197346869690     -7.07693781921464     -0.79163193092076
  H       1.57033732110889     -6.45100347860124     -2.16792397420931
  H       0.60260375656229     -4.15298523288792     -1.97417876652398
  H       3.59627447627409     -3.14120599687973      0.96846041277640
  H       4.56286812964743     -5.44062073333590      0.77380945684447
  C      -3.81217434141304      2.07578463119400     -2.10541804279466
  C      -2.57836772071703      1.55155670389102     -1.57736602639904
  N      -1.58853595622629      1.13228035988346     -1.15196660733223
  H      -4.38225000859599      2.55946125100788     -1.29718217774768
  H      -4.40944021045981      1.25443041418269     -2.53040422236661
  H      -3.59352824694652      2.81437355901884     -2.89190260764444
  S       3.40864385104083      2.53245395293582     -3.38320302677840
  C       2.47492111010134      1.82686161871246     -2.35387265815018
  N       1.74795726209585      1.28176062925491     -1.54648513678955
