47
Coordinates from ORCA job orca
  Ac     -0.57444092715264     -0.41288988082765     -0.21221499171250
  C      -2.26765045868319      5.68739165797542     -3.66018781265796
  C      -1.38376571260012      4.77863095617024     -4.24410908573475
  C      -1.00699130639865      3.63271107470569     -3.55009748775443
  C      -1.51110331844819      3.39570787772619     -2.26726332893505
  C      -2.39507261535437      4.30796312836611     -1.68288619488191
  C      -2.77283084197937      5.45205836211810     -2.38045932468403
  C      -1.11009356146461      2.16235246428839     -1.53082963522785
  O      -1.54899404321680      1.96316147786610     -0.36058187165789
  O      -0.34113242158559      1.33174426691129     -2.09624601627521
  H      -2.56626896286754      6.58593127136362     -4.20750699869013
  H      -0.98995626083351      4.96550082749263     -5.24683248509271
  H      -0.32102120673941      2.90080333368786     -3.98314525076313
  H      -2.77584267019484      4.09576919986444     -0.68089957155154
  H      -3.46677293629732      6.16501352226308     -1.92720542211941
  C       4.12674785601242     -1.47555004859564     -0.71478775100678
  C       2.87280718579602     -1.18557983822709      0.06550424742813
  C       2.97042579809107     -0.96707709556498      1.45589441278170
  C       1.86644911249125     -0.77786691237227      2.30791806253502
  O       0.66336921949444     -0.71088397448177      1.92240941467467
  C       2.09806819300060     -0.65355516695292      3.78944354003233
  O       1.79484641313332     -1.16457521273192     -0.59095126579829
  H       5.03441705959487     -1.45756867396903     -0.09726406143591
  H       4.22080920398454     -0.73992400389705     -1.52949532776601
  H       4.03087191964907     -2.46534988985823     -1.18960109494880
  H       3.96143527322428     -1.01218446605430      1.91006709392900
  H       3.15897049794807     -0.70498393513454      4.06759346117850
  H       1.54740650799702     -1.45712399788409      4.30464663440082
  H       1.67258352499929      0.29975569584949      4.14194736083914
  C       0.27189209938201     -3.16650292680506     -2.79290499428341
  O      -0.48987452937446     -2.31595598644445     -1.97795446509812
  H      -0.04868753428367     -3.11549550678324     -3.84741239205999
  H       0.21784014115373     -4.21466660743257     -2.45106362479235
  H       1.31543021574125     -2.82972128422840     -2.72183851446539
  H      -1.43564411503804     -2.54658202595653     -1.88315173435045
  F      -2.50914184598977     -1.71350311119883     -0.70287528244016
  C       1.57653817547998      1.80834939626180      0.19168795180599
  O       2.35854328366583      2.61724240444476      0.13065134194500
  C      -3.68226222953771     -1.87516431423454      3.51940843460195
  C      -2.30541577544157     -1.79425765950329      2.89922437604356
  O      -2.31577409624077     -1.07275889959389      1.68640392049043
  H      -3.64620261049176     -2.41293369895102      4.48004276787825
  H      -4.38383735542078     -2.41096963714175      2.85910577691358
  H      -4.08662931930927     -0.86745060027137      3.70010055074111
  H      -1.89256267510371     -2.80927770318636      2.73928664352630
  H      -1.60167854948711     -1.26766239449406      3.56209647840204
  H      -2.80260380130429     -1.54047146457841      0.96893351603668
