29
Coordinates from ORCA job orca
  Bk      0.36757070206737      0.60063846432724     -1.06334775871550
  C       4.59999797665350     -1.17797159577004     -0.84565557216846
  C       3.17924135064152     -0.99902601271480     -0.40790937660455
  C       2.70754015757965     -1.65667521750334      0.74459757993406
  C       1.38956634547131     -1.57067405664374      1.21065119680080
  O       0.47197049439552     -0.87894962074709      0.65563891924456
  C       0.98218750772248     -2.32656506570895      2.43959225098775
  O       2.45975635816413     -0.24289419074034     -1.12752065904138
  H       5.18050573123705     -1.81548582904852     -0.16706922188692
  H       5.07608137275517     -0.18790470945656     -0.92443364525770
  H       4.60794269756094     -1.61404854008352     -1.85746034589112
  H       3.40688849779246     -2.28219239738290      1.29987050036114
  H       1.81073716886619     -2.88440106913417      2.89369237320030
  H       0.17202520595902     -3.02676874101899      2.17891220330768
  H       0.57117899743636     -1.61746821551044      3.17609114550127
  N      -0.64526020346993     -0.27327116282588     -2.80340543891031
  N      -1.14992124211880     -0.79830307151238     -3.75674951622275
  N      -1.64318920490953     -1.30197779394260     -4.65336173704555
  C      -3.98366554989928      2.07139326984242      0.08367150823773
  C      -2.66175615365215      1.95849977857042     -0.34552403319120
  N      -1.91902564668065      0.90705994030055      0.01038823224941
  C      -2.47982391371234     -0.01664309057288      0.79398931105585
  C      -3.80184530024481      0.11769094424922      1.21504000144255
  N      -4.55217545058013      1.15469403107606      0.85917636028261
  H      -4.58963437279895      2.93375223008210     -0.21421130496661
  H      -2.18315499647669      2.72470257951285     -0.96521220985792
  H      -1.84759075043004     -0.86101492025024      1.08552821573927
  H      -4.25860861903934     -0.64217847260364      1.85845933329555
  Br      0.72276083970996      3.28488253521025     -0.80593831188055
