33
Coordinates from ORCA job orca
  U      -0.55897704664751     -0.63299193160142     -0.45116579854755
  C       3.91866448291234     -5.88275082504109      0.44081295303141
  C       2.54936502366953     -5.69281826605487      0.19872625486220
  C       2.07409535468552     -4.42902974120473     -0.08708101839011
  C       2.97218621753534     -3.32920126306127     -0.13914273928679
  C       4.35798266739074     -3.53967665488691      0.10669930246599
  C       4.82025108881146     -4.80753994047871      0.39541732045186
  C       2.48931436560435     -2.03247362502271     -0.43482747570076
  O       1.21186119541429     -1.77226906436990     -0.58385047812246
  O       3.21592867081376     -0.97339150290266     -0.58829708311716
  H       4.29145728714274     -6.88636300996371      0.66866920137088
  H       1.86663668851796     -6.54518566457991      0.23233322611730
  H       1.01147404889029     -4.28171182783382     -0.29037196158013
  H       5.08480694293056     -2.71959652016923      0.09390372265770
  H       5.88243460074102     -4.97389522486751      0.59126470578616
  H       4.17479003795056     -1.13757419574534     -0.52024770965471
  C      -5.08175377435214      0.35456066255679     -0.54484925359130
  P      -3.66586733991288      1.35630929003877     -0.14239895450786
  O      -2.32153306892295      0.43586781160785     -0.45878257845826
  C      -3.55988145870320      2.79876247745891     -1.18147154165048
  C      -3.61193574820351      1.77966134450672      1.58691049899591
  H      -5.07027631496826      0.07417451471889     -1.61009684934016
  H      -5.99014121693737      0.95371536008327     -0.35300448026509
  H      -5.12011435760151     -0.54415509958445      0.09051862061654
  H      -4.45459977953197      3.41973462535902     -0.99483765325333
  H      -3.55181921804359      2.51431847722456     -2.24560326101431
  H      -2.66856237415001      3.39589030483976     -0.93315084537157
  H      -4.49427835451268      2.40467112293119      1.81402572226730
  H      -2.70520776022655      2.36054507904047      1.81813712639521
  H      -3.65629504265256      0.87529594902811      2.21374846472755
  Cl      0.02276416063427      0.09915095006230      1.76848323742578
  C       1.09857795100657      1.31438665282488     -1.08202970915219
  O       1.82545207071541      2.14217973508688     -1.26254096616756
