37
Coordinates from ORCA job orca
  Ac     -0.73150089392996     -1.90521397211491      0.57656915656080
  C      -2.03364345969358      5.00843231450119     -1.06387801297499
  C      -2.07134999265276      4.66662428471891      0.28971854838903
  C      -2.08106271252432      3.32563994830261      0.67037553717709
  C      -2.05989041798515      2.31959615938697     -0.29789052707954
  C      -2.02404486475004      2.66481227032391     -1.65122351125542
  C      -2.00960607454684      4.00462537500498     -2.03424840876222
  C      -2.02182797061207      0.85917201516972      0.11229189237412
  O      -1.99803414233523      0.01319259754665     -0.81644968955143
  O      -1.94354203478636      0.59356017775553      1.33012211879629
  H      -2.01930994150437      6.06159962985655     -1.36422273226307
  H      -2.08516361101805      5.45374897980615      1.05104100861046
  H      -2.09274566860420      3.01381459037464      1.71876723777717
  H      -1.99387147284405      1.84608241386108     -2.37588138472446
  H      -1.97259974436464      4.27090756921753     -3.09583779013480
  C      -3.60077361103092     -4.01231046844754      1.43595764211599
  O      -2.59301104158588     -3.18292386302164      1.07249589094211
  H      -4.44097770782218     -4.04818305274302      0.69662320018849
  H      -4.08090699023740     -3.73238991662556      2.40827211929390
  H      -3.28003364350358     -5.07683535732155      1.56438938259343
  C       0.79257513311103     -1.06384177482596      4.02840250871185
  N       0.35859030494623     -1.39212182229773      2.98360661552655
  O       0.27214969040082     -1.97287019600662     -1.71177200402479
  S       1.35746351779704     -3.13365798031444     -1.51570755108530
  O       0.94692526232265     -3.58139530642055     -0.03786952165610
  O       1.01754483405098     -4.24787793103052     -2.45495614825911
  C       1.72149636915607      3.02162386747124     -0.38898546985719
  C       1.48266752482863      2.66386116111671      0.93609366599160
  C       1.09823926316980      1.35209570858831      1.21425835788468
  N       0.95649948508653      0.43535474110056      0.25686231509055
  C       1.19521376771906      0.76556541716414     -1.01486111306597
  C       1.58417441252154      2.05517168048113     -1.38179832502481
  H       2.00211076391117      4.04866858910308     -0.64597211697707
  H       1.57301126074191      3.39048106001117      1.74782676800386
  H       0.88481580747305      1.00798905979232      2.23367669415885
  H       1.03588640253804     -0.06042503520726     -1.72827893786910
  H       1.75543219655726      2.29312706572194     -2.43501741562141
