42
Coordinates from ORCA job orca
  Np     -0.02340428681308     -0.71380382046164      0.40998513486764
  C       6.77284100078022      0.24883792152498     -0.40278947006801
  C       6.20185091358363     -0.96420651458568     -0.79585318752681
  C       4.83786948853805     -1.16925191415877     -0.63554276279813
  C       4.04874355440679     -0.15357186227820     -0.07563976035110
  C       4.62280483511393      1.06372341038364      0.32057544121000
  C       5.98723626233655      1.26124661930228      0.15298656535586
  C       2.61674654194701     -0.35866191022058      0.09788394715831
  O       1.87123409000429      0.53115053301392      0.63521598702254
  O       2.03463154188849     -1.43758999366827     -0.28183679364402
  H       7.84688894505031      0.40718693126221     -0.53144035495817
  H       6.82730787177292     -1.74888991032588     -1.22766045946220
  H       4.36848797183588     -2.10883400631241     -0.93560034940022
  H       3.98620526331647      1.83891088371298      0.75341627696352
  H       6.44504663312444      2.20571066412576      0.45592467494553
  F      -2.47818510688631      1.15956465801972      2.80129817417489
  P      -2.55475346830341      1.49205977098485      1.23269554735753
  F      -0.88149177193361      1.54767783769419      1.12147650972913
  F      -2.52221360127821     -0.13306588651400      0.84352293987862
  N      -0.47837102033640     -2.85700457155195     -0.82894322123054
  H      -0.91885937650994     -2.66316445383501     -1.73201009955366
  H      -1.05018119033158     -3.56618858308944     -0.36433214290434
  H       0.42651407135049     -3.29224489206971     -1.03173922231056
  C      -2.07542422997404      1.61196627023347     -6.03617578044623
  C      -1.13070100587090      0.69971112628926     -5.56268591719243
  C      -0.99414729218903      0.49155939561196     -4.19503885884007
  C      -1.80562338090955      1.19901463874231     -3.29748052465736
  C      -2.74939261440005      2.11800748669397     -3.77648520427312
  C      -2.88288356531512      2.32087306630217     -5.14478213163100
  C      -1.68679450228278      0.99290542167767     -1.84244491403544
  O      -2.36209224999465      1.64839054988036     -1.04275508013219
  O      -0.83858511209930      0.07721371000425     -1.44349271453801
  H      -2.18180814271273      1.77393980305388     -7.11208745441508
  H      -0.49775308011019      0.15311384095811     -6.26598276365793
  H      -0.25188021824897     -0.21144368604187     -3.81038917662921
  H      -3.36833543561166      2.66182033753681     -3.05934371367195
  H      -3.61851066302369      3.03510104846683     -5.52219941977439
  C      -0.21062190171214     -1.92670884097663      3.57004656566627
  O      -0.24457295777222     -1.55230260497731      2.21697470037284
  H       0.75416303410146     -1.64762442786699      4.02264034958956
  H      -0.34800985386079     -3.01529639617344      3.66253995737660
  H      -1.02197599067099     -1.41443165036858      4.11114870643264
