35
Coordinates from ORCA job orca
  Pu     -0.21605528314762      1.74983759431775      1.31273608963437
  O      -2.11374364767775     -0.86675278731881      2.67470658049088
  S      -1.25695901411150      0.17475080328110      3.58070354998389
  O       0.17855282623549      0.10489177519168      3.00346906243929
  O      -1.67594211265214      1.58876236409282      3.08694310487715
  C       3.10591234984150     -1.85374045077624     -0.57721192126486
  C       2.08840686929900     -1.30590306454751     -1.35342763611182
  C       1.27132547201454     -0.33375586989620     -0.78993666328953
  N       1.41739460738405      0.07492010112071      0.47408516830861
  C       2.38434849606003     -0.45706989280139      1.22636618265236
  C       3.26186115853420     -1.41677701388772      0.73555317625360
  H       3.77019222299925     -2.61720233851004     -0.99138531340397
  H       1.92340838838196     -1.62283038962297     -2.38484395739093
  H       0.47246414784096      0.14003562055179     -1.36815231944641
  H       2.44357057901640     -0.11251989577050      2.26283629858870
  H       4.04600175904321     -1.81809491849339      1.38081283292929
  C      -0.06811120334053     -4.26148359348294     -0.41610886114813
  C      -1.15751050331399     -3.71207212187317     -1.09116545162539
  C      -1.85092772165867     -2.63631494276492     -0.54086679740121
  C      -1.45799947645795     -2.10381901313140      0.68924303541361
  C      -0.37005402786291     -2.65677093789433      1.36702550696148
  C       0.32208711242000     -3.73228466645415      0.81352583744789
  C      -2.16180459865233     -0.85949803055577      1.19581085296616
  O      -1.56912615363228      0.26965347761618      0.71423080461458
  O      -3.47838644549444     -0.90658817458524      0.85543242655984
  H       0.47264915793359     -5.11000004705909     -0.84489982029997
  H      -1.47505277283424     -4.12867516821795     -2.05095935256935
  H      -2.71050170730234     -2.20151708081497     -1.05532467575536
  H      -0.05953475363190     -2.23706794475085      2.32565788443947
  H       1.17060770757681     -4.16333983741519      1.35249961529837
  H      -3.82605443221149     -0.00896338277253      0.95467729057537
  O       1.01192525007564      3.59600329217939      1.54112540159969
  S       0.53922805913918      3.94191743445830      0.03176196948739
  O       1.01259937332635      2.65960924006453     -0.67832849234762
  O      -1.00147168314011      3.56145986052314      0.22950859053251
