58
Coordinates from ORCA job orca
  No      0.48173495010289      0.21915159116725     -0.58640461839212
  N      -1.30725616653536     -0.73283423242933     -2.03602938161898
  C      -0.94862979173845     -2.08164330247164     -2.47084011184959
  C      -0.65680342741803     -2.93698698065165     -1.25333540255671
  N       0.39565493765844     -2.36221169031613     -0.40194827841647
  C       1.73453855554208     -2.95311729673777     -0.53841757843147
  C       2.61912171614611     -2.15211460441583     -1.47400402128424
  N       2.70483572333666     -0.77850482332556     -0.98731764391974
  H      -1.34517022522289     -0.09647608235849     -2.83523420158193
  H      -2.22230112684885     -0.71871701830862     -1.58010140464479
  H      -1.73689613141399     -2.56062681542258     -3.07899407594231
  H      -0.05728778089268     -1.99606186214234     -3.11460531349565
  H      -1.57339649715775     -3.01586657474976     -0.64387437208826
  H      -0.40091418673527     -3.96560023185675     -1.56474544339338
  H       0.09317493034273     -2.46334226255043      0.56528375555509
  H       2.19900770949045     -2.96422076667706      0.46217932183724
  H       1.67757000825678     -4.00421095645709     -0.87428335285745
  H       3.60673370467650     -2.64039575497531     -1.55699004566174
  H       2.19201842685986     -2.12294014674487     -2.49045665398938
  H       3.22318677369177     -0.72765072387099     -0.10754582557215
  H       3.16573252327779     -0.17017378468897     -1.66637302339506
  C       0.22187308681947     -1.29048361291179      6.28974438572928
  C       1.39559723333871     -0.79233962686513      5.72116762839110
  C       1.42825230528317     -0.47260409336991      4.36889742890993
  C       0.28199161071630     -0.64169568256648      3.58031232788751
  C      -0.89355885015017     -1.14323870718926      4.15433520928745
  C      -0.91945401062180     -1.46831002479935      5.50698659590136
  C       0.34340753031824     -0.30339309896606      2.14243460486105
  O       1.44843064873862      0.00269721177797      1.61020633007761
  O      -0.70477794037140     -0.33705339699515      1.41291147658060
  H       0.19820629834360     -1.54553074215891      7.35257094840904
  H       2.28788926604084     -0.65702485277383      6.33736867956284
  H       2.33815336902139     -0.08861663490643      3.90223437461988
  H      -1.77860116278562     -1.28815284830052      3.53482556930729
  H      -1.83367781981683     -1.86632764191688      5.95417813215552
  C       2.20343364411234      3.35663996242800     -0.43238307980585
  O       1.90525898694627      2.05105171801420      0.03395586860840
  H       3.26817680239288      3.59328913908909     -0.27949409480511
  H       1.58267092159269      4.11305614766106      0.07505354305986
  H       1.98806568097426      3.36482693070287     -1.50958296344127
  H       2.11583455009457      1.93233425905071      0.97222165253192
  Br      1.14622962518433      1.04741119911540     -3.14304683506418
  C      -1.68831765262577      4.15067977164940     -1.06926856823245
  C      -1.86438270579712      2.68264735880481     -1.37329870185275
  O      -1.18688771975112      1.85694760925004     -0.43071111305487
  H      -2.22236115527971      4.76046859864749     -1.81356112327242
  H      -0.62464380237292      4.43146184443989     -1.09800421717111
  H      -2.09272134108893      4.40710152097050     -0.07657672132566
  H      -1.43784131261745      2.43949586833182     -2.35969548106083
  H      -2.93658636889686      2.41089329758527     -1.38656598391109
  H      -1.40172944826355      2.11831688008901      0.50695627623875
  F      -3.39026276406018      0.04019864996750      2.31947358131820
  P      -3.42513001329062     -0.82995048692161      0.96454413263670
  F      -4.97264868372167     -1.18166777153012      1.02987714690120
  F      -2.88598079204015     -2.20586606454386      1.57622044077954
  O      -1.56069085354086      2.28015402881317      2.11845566096406
  H      -1.97854972627490      3.00060747103619      2.60503704844535
  H      -1.95222206196887      1.46222013927487      2.46135751153193
