52
Coordinates from ORCA job orca
  Fm     -0.43117948935410     -0.17727432987503      0.21067395814887
  N      -1.58515490360327     -1.12890984750537     -1.91921438787470
  C      -2.50204471629832     -2.23937109950835     -1.64615872885873
  C      -3.27365042622503     -1.94890021219847     -0.37511344189769
  N      -2.33119996814977     -1.73839492603206      0.72136818427017
  H      -2.10667965284300     -0.32507797666644     -2.27832050639230
  H      -0.92620268619190     -1.37491961352003     -2.65843375419828
  H      -1.89950941873365     -3.15484135153228     -1.51216035194340
  H      -3.20047589470933     -2.43553751663734     -2.47880462065923
  H      -3.99604731855349     -2.75959559417897     -0.17593617092127
  H      -3.85501049365455     -1.02036918093629     -0.50101541831583
  H      -1.98708909764857     -2.62418871196761      1.09678111239809
  H      -2.77525587988929     -1.26866253194977      1.51252234650140
  N       1.33622414430433     -1.87147023598827     -0.31017000114449
  C       1.46236636399519     -2.94212916662112      0.47975869038174
  C       2.36167386447028     -3.97001040528964      0.21387743492514
  C       3.16107149172332     -3.86615075656153     -0.91948416585076
  C       3.04404325490231     -2.74198968727777     -1.73130273616604
  C       2.11973831847078     -1.74856491512168     -1.39703405552670
  C       1.96636371879760     -0.50146161879633     -2.18839655141750
  C       2.76340165976487     -0.22114208818030     -3.30179935449577
  C       2.58687692539851      0.98067051338746     -3.97979954111859
  C       1.62319176183678      1.87519087022230     -3.52796155971629
  C       0.86259573638100      1.52333290042392     -2.41560104851621
  N       1.02703865857583      0.36534487599505     -1.76956273977662
  H       0.83487419392461     -2.95187190556753      1.37745691349041
  H       2.43323078935780     -4.82380809835632      0.89037644369993
  H       3.88167269331556     -4.64904253689725     -1.16913581017843
  H       3.67601553425974     -2.64540995651192     -2.61431404293783
  H       3.52373119987569     -0.92584144380985     -3.63906705222008
  H       3.20319239487963      1.21451855598909     -4.85155340641706
  H       1.45264101151305      2.83212836843370     -4.02510149338576
  H       0.08349846848823      2.19289350063081     -2.03613351066801
  C       0.73083132136476      4.23477654426633      1.73492801264171
  P       0.53423470731422      2.53926777387708      2.30363431734372
  O       0.61814818656637      1.59092455598830      1.08727799654541
  C      -1.04941947563326      2.42004309836966      3.14440761477306
  C       1.82695176355220      2.15949164798654      3.48873077937439
  H       1.70290862444181      4.33545504614720      1.22914841729819
  H       0.67558388808448      4.94951040658714      2.56955388761105
  H      -0.07060613054937      4.45198451358537      1.01140136660499
  H      -1.10799749812742      3.15671567333101      3.96023498178535
  H      -1.14809636747346      1.40370988904791      3.55624512559015
  H      -1.86048317923206      2.59591566464197      2.42023593648231
  H       1.79651088535939      2.85345475231078      4.34227890154966
  H       2.80595819011815      2.22847345548284      2.99132085667324
  H       1.66965165224100      1.12770658839064      3.84376357969604
  N      -1.70486866068137      1.69788109163890     -0.57167680413369
  O      -2.06533860033989      2.73621982898631     -1.05135436386872
  O      -2.37322717906239      1.15368070996064      0.36351828394540
  C       0.08983844333965     -1.09854481733550      3.52715975151797
  N      -0.15462280966371     -0.96101030085800      2.38165072535154
