47
Coordinates from ORCA job orca
  Pa      1.20768770870189     -1.37436412577184     -0.45783437148235
  N       1.86999723428546     -1.66069656495462      1.81772650809608
  C       3.07316310185072     -2.22249415702107      2.02419599803699
  C       3.57040612729871     -2.45067793287273      3.29733499745665
  C       2.77779106935863     -2.07356326889544      4.38381419732196
  C       1.52813541563108     -1.49118321781752      4.16569934173438
  C       1.08536530624908     -1.29381780480988      2.86051736444901
  C      -0.21427424415427     -0.70808287517443      2.48860329483428
  C      -1.16457590812822     -0.30388531352029      3.41966158266533
  C      -2.37959999616032      0.22164374685903      2.97702880290727
  C      -2.61484250817755      0.32930423511074      1.60892555289606
  C      -1.62319999321550     -0.08464856390183      0.72978118697785
  N      -0.44617090751402     -0.58929095647557      1.15163860915619
  H       3.65988654954881     -2.49973581859044      1.13539123835552
  H       4.55123646232450     -2.91174459930403      3.43527293840841
  H       3.13241575513774     -2.23523037623381      5.40629589475589
  H       0.91105229940854     -1.19975013822041      5.01742365546590
  H      -0.97323879375272     -0.39876037393693      4.48990862765674
  H      -3.13573546976172      0.54082403635807      3.70025956476018
  H      -3.55327874453735      0.73086706176796      1.21917448307112
  H      -1.77583292555104     -0.01151829473107     -0.35123458907573
  S      -0.83843506664761     -5.75818268100028     -0.93098531031764
  C      -0.18037192980115     -4.38017921600476     -0.76303028544386
  N       0.35347006917688     -3.27178842442179     -0.62229713980876
  C       3.64449990989107      2.76240546803640     -1.42731513449249
  C       3.17186208052848      1.48937713052861     -0.97635640550501
  N       2.78277932735108      0.45425516310083     -0.61273797487566
  H       2.87686695725411      3.19145095395807     -2.09469876302019
  H       4.59168299989189      2.63777702872590     -1.97897337455612
  H       3.81028316004058      3.43050500338441     -0.56522692505520
  C       3.57078405712967     -2.79400688094802     -2.87045893523066
  N       2.88722286681944     -2.34192121061292     -2.06113709514775
  C      -3.69871745043232      0.79301467891581     -4.71877218914855
  C      -2.87916727999102      1.92387879772675     -4.77519365548160
  C      -1.68416333506854      1.94775869693532     -4.07097470224683
  C      -1.30662690504472      0.82806262108149     -3.30178732785502
  C      -2.13435906811581     -0.31176199895201     -3.25263774040415
  C      -3.32739317084227     -0.32289927552151     -3.96023729308183
  C      -0.04593501331425      0.91944557794622     -2.59898461972454
  O       0.24228769121262     -0.25302802524770     -1.76690254754090
  O       0.77720829399423      1.77741180658806     -2.56981715382294
  H      -4.63864062392772      0.77751266048680     -5.27760627641347
  H      -3.17756919096369      2.78746220071528     -5.37445502329983
  H      -1.03135811437876      2.82334334157988     -4.10596655418396
  H      -1.83390421191681     -1.19434268874493     -2.68187471021609
  H      -3.97368983102805     -1.20338045068911     -3.93556681502925
  H       4.21879623933999     -3.22416497543040     -3.63839092654522
