40
Coordinates from ORCA job orca
  Am      0.40229574068529      0.24531010085465      0.06976758110828
  C      -3.71984077470623      6.04393269710662      0.26328871599566
  C      -4.22799108673293      4.82524741015537      0.71657808970666
  C      -3.42663231648470      3.68627744805840      0.69574607886644
  C      -2.11449756385666      3.76232260968489      0.22265223601063
  C      -1.60704120549021      4.98285019744927     -0.22944201577436
  C      -2.40906706971764      6.12181979688774     -0.21015556608732
  C      -1.25172240712995      2.53249151401534      0.20814222014083
  O      -0.06188510824493      2.63989442796370     -0.20321099136674
  O      -1.74094844807326      1.44806504422670      0.60424740314029
  H      -4.34896307401424      6.93915575976310      0.28009528862268
  H      -5.25535419688973      4.76572142083401      1.08798403511438
  H      -3.78810205068892      2.71458225599560      1.04176493857373
  H      -0.57580058641245      5.00506973933240     -0.59104131061681
  H      -2.01152082306331      7.07793850816298     -0.56378259627212
  C       2.33102777123788     -3.79851689984180      1.27029397310327
  C       1.47914419400445     -2.58677412391442      1.54306011298575
  C       1.29477515694867     -2.16154724079042      2.87550536878533
  C       0.61420639772474     -0.98075001150399      3.21725398242274
  O       0.14022665688431     -0.15343759313299      2.39244007719495
  C       0.42205748263395     -0.64093527328368      4.67519950898088
  O       1.00065775812124     -2.00268642717324      0.53640714734637
  H       2.54540761267701     -4.38667373211632      2.17378111313461
  H       3.28095506921965     -3.43352651381554      0.84224341808502
  H       1.84312234643387     -4.42879519523088      0.51128707846506
  H       1.71123674935723     -2.77348756715088      3.67763135016930
  H       0.87340583220527     -1.37776661016530      5.35422349128358
  H      -0.65767219800308     -0.56424495847988      4.88173780774055
  H       0.85399741310997      0.35354573883756      4.87023025619552
  C      -1.16791124284152     -2.70818209825757     -2.17695523756338
  C      -0.67969273511171     -1.38761244786812     -2.75766385485098
  O      -0.33706323899099     -0.48956557586402     -1.78315207478723
  H      -1.41720331308725     -3.43832704473473     -2.96708601449392
  H      -2.06695698558992     -2.54155189334220     -1.55975727511360
  H      -0.39052773975820     -3.13556965106283     -1.52317319881117
  H      -1.47570497125432     -0.97651976246574     -3.42214351372619
  H       0.18299437224338     -1.60049738713527     -3.43115486002603
  N       2.74390951585897      0.43224127760618     -0.02144276913294
  N       3.66253764852689     -0.31700669757806      0.10752374635880
  N       4.56374141826947     -1.02559124202665      0.23257625909133
