44
Coordinates from ORCA job orca
  U      -0.28049398701739     -0.62855538938795     -0.73753041618628
  C      -0.75754737378244     -0.29819269801319      3.90124087103617
  C      -0.75132497905722     -1.01055091703763      2.58855737641138
  C      -0.99104599888057     -2.39488301276408      2.53126554761093
  C      -1.02321522988466     -3.11142526197131      1.33421595390187
  O      -0.79796454948450     -2.54111972094690      0.19995322727088
  C      -1.31941741275648     -4.56766744966331      1.28793740993467
  O      -0.53122780781492     -0.29689359531703      1.54986838748883
  H      -0.89618079051736     -0.97625652400859      4.75201079880619
  H      -1.56766761837871      0.44972893793437      3.90370903028826
  H       0.18560301948623      0.25796924827265      4.02323607462457
  H      -1.18291894086459     -2.92893292538079      3.46179450513170
  H      -1.48376762182720     -4.99791214907193      2.28291519365826
  H      -0.48893242743763     -5.09096432163311      0.78699075023574
  H      -2.21151505183585     -4.73006107685507      0.66096511267158
  C      -3.66608240121763      2.05624604656130     -1.11635826392619
  C      -2.18423018159535      2.31693071391628     -1.10207863620445
  O      -1.48946799460398      1.37651154174165     -0.25029237429287
  H      -4.16327092405922      2.78755297584535     -1.77179972800813
  H      -4.11013785857523      2.15737394761252     -0.11264153630599
  H      -3.87477057872714      1.04897886238967     -1.50676252972011
  H      -1.93506009841395      3.33045854928245     -0.74839821712150
  H      -1.72995036847846      2.17913676461767     -2.09121411423763
  H      -1.63880927593365      1.55705818583374      0.68869897976323
  C       3.14672347017341     -0.00824367675092      2.32990431586964
  O       3.61771989461326      0.30665765923420      1.02891716785112
  P       2.56310160386899      0.59334850021943     -0.15674021670412
  O       3.64166660087265      0.84857552130275     -1.30877833359380
  C       3.37482072662750      1.69955133354740     -2.43362973513077
  O       2.05528131831226     -1.01033057405037     -0.52092685843359
  C       2.93361741490426     -2.04820735582159     -1.00274223098965
  H       3.98404942404867      0.14577354016018      3.02237772402868
  H       2.82275480375647     -1.06136438143604      2.38614422048250
  H       2.30957649100784      0.64778237278464      2.62506080049460
  H       4.05379122741394      1.37521549667419     -3.23195132902165
  H       3.60151865829116      2.74274997960831     -2.16952208310799
  H       2.33190453749836      1.60139918965800     -2.77077943154101
  H       3.13030505477580     -2.75500971493578     -0.18502573728572
  H       3.87143322115701     -1.59164119484251     -1.34776942096065
  H       2.42512112005905     -2.54331775596362     -1.84122689729977
  O       0.22794744557058      0.69151714595315     -2.57247900674229
  S      -0.54999599567970     -0.46815916803734     -3.37164458486805
  O       0.22773094153514     -1.69767228739168     -2.78978539031553
  O      -1.83117150714886     -0.52565536186898     -2.42078637556320
