81
Coordinates from ORCA job orca
  Pa     -0.21292846837036      0.07942503627488      0.04019100905104
  N      -2.74690546993062      0.08707134736882     -0.20143906447360
  C      -3.50609522345284      1.07270929161149      0.62241772449953
  C      -2.54497112127142      1.74904513099407      1.56638662885834
  N      -1.34812151517441      2.22128341846049      0.81961025188566
  C      -1.61873901920977      3.30662008561620     -0.16481139778791
  C      -1.80294258778027      2.76303647984772     -1.56173658155501
  N      -0.72794975247256      1.77005797382022     -1.83527626516175
  H      -3.09192120805885      0.11026961399428     -1.16630131803040
  H      -2.99961162469269     -0.85422725006732      0.12347286651547
  H      -4.31160793500094      0.57541740159977      1.18533224002838
  H      -4.00748069527636      1.79956094637654     -0.03394377673232
  H      -2.19795745668685      1.04171125466364      2.34335127056934
  H      -3.02987507453581      2.58487987090827      2.10252528343004
  H      -0.72603675548690      2.62382588090638      1.52488343646634
  H      -0.75809309862808      3.99397498341463     -0.14245045609074
  H      -2.49218426525085      3.90923840080774      0.14028162710632
  H      -1.77493901924898      3.58719969483438     -2.29551987269957
  H      -2.77730280567080      2.27447266120186     -1.70082130410898
  H       0.14513756714719      2.29931534516710     -1.95365444713615
  H      -0.89607180830828      1.38205186605816     -2.77039771250923
  N       1.83877846554818     -1.39426467492643      0.41219386981120
  C       2.86474277687235     -1.55245037489942     -0.65749366314100
  C       2.18949944061882     -1.43421492085770     -1.99770944249427
  N       1.35842563449151     -0.19571544989116     -1.99741991442171
  H       2.29956790758037     -1.11035124689222      1.28403538944121
  H       1.45618056199080     -2.32122864345979      0.63288905538874
  H       3.39504516707488     -2.51457407817598     -0.56460444877659
  H       3.62321827203962     -0.76733114780468     -0.52566149025654
  H       1.52725513101859     -2.29148472719870     -2.19399052093048
  H       2.93275297768361     -1.41209091807985     -2.81277265969470
  H       0.85855149458678     -0.16826991314119     -2.89304243024428
  H       2.00174535356999      0.60233736237927     -2.04558612287273
  C       1.70448532918057      0.30446500042947      4.38597883462916
  C       0.39997487113351      0.32042105929492      3.64770411918349
  O       0.61018617755765      0.68362555082410      2.20673298924342
  H       1.50381799878913      0.05468634172490      5.44248629529640
  H       2.19497132652245      1.29244685685713      4.40482004171144
  H       2.40873153326014     -0.45121580841770      4.00258061294648
  H      -0.30063441030376      1.06706076442641      4.05535757075578
  H      -0.09191350207210     -0.65890731113037      3.61955669633449
  H       1.20753650640900      1.45363258648051      2.21554753178447
  C      -0.37920427602179     -5.30640220239896      4.66456146879079
  C      -1.74889260061776     -5.19411240024663      4.37142823044646
  C      -2.18572030528036     -4.20586601370170      3.51082761526228
  C      -1.25386237362366     -3.29670446730162      2.92204460121868
  C       0.13209551514625     -3.42979906618386      3.23758362435734
  C       0.55922810999549     -4.42145638041148      4.09480128451745
  C      -1.70329030078011     -2.28127869155510      2.04380561740468
  O      -0.91480839049825     -1.42516553735364      1.44614459278280
  O      -2.95627799996241     -2.09200626448729      1.72837355219724
  H      -0.03606437169189     -6.09231402919132      5.34779469525046
  H      -2.46459141346091     -5.88794973410249      4.82354238460607
  H      -3.26287089672904     -4.15933034147131      3.30945646849756
  H       0.85929035909292     -2.73142024327347      2.81474044511125
  H       1.61840716295201     -4.52858908418724      4.34546849050481
  H      -3.57881930325050     -2.70034634142911      2.17301379460348
  C       1.92824696598422      3.53914407916465      1.50409506131391
  P       2.06195015372265      2.42788567288819      0.04778686994890
  C       3.79517688665017      1.85216953397716      0.13756311358067
  C       2.06961509064034      3.57088228897074     -1.38332986839361
  H       2.70110346859766      4.32464347726579      1.40910313210032
  H       2.15426510032981      3.03319689766498      2.46180412038906
  H       0.95801409099376      4.05788317314071      1.57697840197292
  H       4.44425239623113      2.73459994605354      0.28413239803984
  H       4.11936839265314      1.37116614883195     -0.79897989258325
  H       3.96685487101371      1.17094181312278      0.98612190837203
  H       2.91648907988054      4.27258357296284     -1.26871339735788
  H       1.15703674117912      4.18609381378325     -1.44609557390642
  H       2.23328564278360      3.04683329611690     -2.34162289777191
  C      -1.66339937805290     -3.87978986747855     -3.18168117872825
  C      -1.86073711099789     -2.54362688223861     -3.54894170000787
  C      -1.50485661035654     -1.54592483808954     -2.65477039291876
  N      -0.97324156498655     -1.79006701742043     -1.43049958740430
  C      -0.79905784342934     -3.08976196587726     -1.08389391724643
  C      -1.12230807558852     -4.14849844930013     -1.92139802562109
  H      -1.93161322031619     -4.69426539906807     -3.86497757078052
  H      -2.29033887869237     -2.28117955957602     -4.52139022859799
  H      -1.66919725480819     -0.50057896930933     -2.93692101234641
  H      -0.38749462348820     -3.29618002376412     -0.09138828931531
  H      -0.95465491140472     -5.17752568592702     -1.58837079410813
