51
Coordinates from ORCA job orca
  Th     -0.70690094832875      0.42975872123995     -0.96462741561461
  N       0.13606523626365      2.41775699692630     -0.72432447894380
  N       0.60747674701234      3.52832448947129     -0.54988536495538
  N       1.05114640691282      4.55296243256549     -0.39025649883668
  C      -3.53297229801792      2.78037292420278      0.92802137165750
  P      -3.26144980820175      1.93869217862063     -0.66629638554080
  C      -4.73705817566068      0.89971720225692     -0.92756913310742
  C      -3.37247773323918      3.23951842321149     -1.93723906681936
  H      -4.48919594528446      3.32775764586641      0.91390845212185
  H      -2.71991540586787      3.49664228632103      1.12212207232132
  H      -3.55918613076796      2.04476238188363      1.74663260844595
  H      -5.65257475894182      1.51092564968151     -0.88189404162778
  H      -4.79202580845953      0.11950964569240     -0.15274659444050
  H      -4.67693852334837      0.42325433807054     -1.91848943707222
  H      -4.33992061564685      3.76189154007910     -1.86455209753864
  H      -3.28633708332178      2.78661898714426     -2.93711620396151
  H      -2.56139148354778      3.97159885319765     -1.80530281044766
  N      -1.26471671629728     -0.36314599400162     -3.68557245647476
  O      -0.14161627762948     -0.43656585301337     -3.12070246722854
  O      -2.09350321123923      0.25027376261681     -2.97457025418546
  C       3.90732653595342     -2.53062399996596     -0.54526665141921
  O       2.62214931319212     -1.98353075455750     -0.20337995986315
  P       2.22401491429056     -0.45035702960127     -0.44589924021752
  O       3.37508043297472      0.32012225638459      0.35490996401738
  C       3.77925996565864      1.66797279047782      0.07458500159659
  O       0.90344842318429     -0.45338866156726      0.65028030251643
  C       1.02555841394680     -0.90241928145413      2.02014219027350
  H       3.90502285850983     -3.56552002624415     -0.18364573279506
  H       4.70553957602159     -1.96502182925028     -0.04419173723663
  H       4.05433745239694     -2.52318942021561     -1.63587234289936
  H       4.87195248639239      1.70525110792504      0.16530602083366
  H       3.32898398079974      2.34442191762085      0.81511583134083
  H       3.48682235174147      1.96941290464144     -0.94403768180697
  H       1.76117723122567     -0.27160742793351      2.53780002335442
  H       1.35399800765882     -1.95023179917680      2.02190992588173
  H       0.03690488630339     -0.80236160219058      2.48586061593968
  C      -4.24857041625648     -5.18607319204555      2.09283555405143
  C      -3.57664608953520     -5.48957948044383      0.90327458796114
  C      -2.87563119163376     -4.49776575446109      0.23728839637005
  C      -2.84321986497244     -3.18905560701662      0.76401975334442
  C      -3.52351747392424     -2.89262113086792      1.96380760470032
  C      -4.22232370300820     -3.89210910494682      2.62196771186031
  C      -2.12724413303695     -2.12282490388674      0.11615873900090
  O      -2.04337241098883     -0.95109290448306      0.53347752532755
  O      -1.46435208628036     -2.30735579029666     -1.03123267166891
  H      -4.80128126202820     -5.97254774310175      2.61421507962188
  H      -3.60488265717089     -6.50456070645326      0.50086772572574
  H      -2.35914909290207     -4.76902595481979     -0.69045223254081
  H      -3.49115075067660     -1.87602314705632      2.36250582566349
  H      -4.75183696974729     -3.67027794947940      3.55132879828870
  H      -1.51630619447631     -3.19934238756656     -1.41331872497410
