34
Coordinates from ORCA job orca
  Pu     -0.02503623024435      0.13891710771442      0.40509287776825
  C       1.24133997483057     -1.67387686319726      2.92166770971086
  C       1.79792454195425     -0.90398916213637      1.74818622536988
  O       1.69020784537238     -1.43572899552090      0.60412970745689
  O       1.79624486234210      0.36039103484465      1.82984962822355
  N      -0.17528732400852     -1.38372881358273      2.59994958132019
  H       1.54139244554296     -1.25197730651886      3.88888887954340
  H       1.47040680820961     -2.74587213857650      2.87628693152627
  H      -0.66551353300886     -0.88108198344715      3.34060127435312
  H      -0.71297607725137     -2.22567461536922      2.39219231799186
  C       1.65077300674279     -0.01920976088794     -2.38729543937415
  C       1.44283877334637      0.35099684069007     -3.83910852973033
  C       1.25258045200586      1.86098812124898     -3.75783809061323
  C       0.40288942470276      2.01945758137851     -2.51372481310969
  O       0.80804938276725      0.91941987124303     -1.65223065739290
  H       2.68983943762197      0.13262061250051     -2.05404090252971
  H       1.33283629238505     -1.04048434584089     -2.12731842085851
  H       0.53964749792157     -0.13891714827279     -4.23782583447164
  H       2.29580341860551      0.05128273446126     -4.46421685380410
  H       0.76516440357583      2.28825791545998     -4.64543637690163
  H       2.22266513705382      2.36717559836418     -3.62843928119494
  H      -0.67324681669770      1.90227417573415     -2.72461504766894
  H       0.56825735195724      2.95588218233366     -1.96470019930018
  N      -1.26633032594363     -1.15658075296608     -0.72284746072584
  N      -2.19414257528584     -1.71944748405445     -1.26798552551924
  N      -3.04977320703784     -2.25354140747790     -1.77920724317803
  C      -2.25450547451660      4.12917329162195      1.54143706954499
  C      -1.23771449578406      3.32472446424759      0.92094320832118
  N      -0.47080793211521      2.59906160782083      0.44226344858818
  H      -2.80516256693497      4.70538461311435      0.78317288849259
  H      -1.80876981045429      4.81236774666662      2.27956231691872
  H      -2.93894485783484      3.42110726986702      2.04713630364737
  C      -2.06689967087823      0.55193346486226      1.59144772099552
  N      -2.96735015894157      0.91609454367493      2.23852258660025
