38
Coordinates from ORCA job orca
  Es      1.65497684257092     -0.51285368441027     -0.98154591172157
  C       2.90774764403413     -0.69850714782610      3.43234448708910
  C       1.92162194096498     -0.75689341100625      2.30223644345537
  C       0.57747620503730     -1.05332717844246      2.57022543909612
  C      -0.40586359554972     -1.19694670318694      1.56953542013215
  O      -0.19557938258223     -1.04203059558251      0.33545057611452
  C      -1.80687077558569     -1.57409526065343      1.96656942557035
  O       2.38906407944978     -0.53242633185026      1.14191332055658
  H       2.43914072250715     -0.82980825096896      4.41643845814997
  H       3.44276207299860      0.26339145799272      3.39840438053571
  H       3.66480522461875     -1.48531948509538      3.28271093642736
  H       0.28508208086999     -1.22008300492664      3.60778851975264
  H      -1.95187075941428     -1.61231346137490      3.05423631199684
  H      -2.04256242608625     -2.56085314086338      1.53589075247506
  H      -2.51434655903863     -0.85590972165337      1.52281652267753
  N      -0.29480146928604     -0.37728460478010     -2.61140937739028
  C      -0.50864465792379     -1.37543857902636     -3.46962894293940
  C      -1.65622952071646     -1.45591519534932     -4.25605303978150
  C      -2.61286843971461     -0.45658156854338     -4.13085801335355
  C      -2.38933445446159      0.58394117810358     -3.23430092143429
  C      -1.21150988643996      0.59663434211694     -2.48388628597302
  C      -0.90328666217037      1.67518660241892     -1.51129990085252
  C      -1.74227199915309      2.77312675536716     -1.29455784957604
  C      -1.36913861017131      3.73564226596404     -0.36223006407578
  C      -0.16980179118889      3.58826429492061      0.32770538332349
  C       0.61005227624519      2.46934746259498      0.04962157131252
  N       0.24542972801858      1.54910295020431     -0.83763471503543
  H       0.27014131997265     -2.14414293714399     -3.51069601713551
  H      -1.78579459428774     -2.29422095846612     -4.94314872456163
  H      -3.53100774973424     -0.48287326527250     -4.72329055546441
  H      -3.13215627507837      1.37435130465438     -3.12256178480656
  H      -2.67692850612223      2.88253257221788     -1.84532077065307
  H      -2.01449937656672      4.59847314209621     -0.17879823091477
  H       0.16084178738523      4.32141599013386      1.06575674846935
  H       1.56722503713498      2.30077604800264      0.55632040178753
  C       2.23543816066923     -3.58627538921322     -2.49379752323949
  N       2.05499419532797     -2.52246504514698     -2.01690386508332
  F       3.01896817346689      0.86507855399454     -1.64044260492999
