46
Coordinates from ORCA job orca
  Cf     -0.07021259576801      1.05275588204314     -0.35935839161808
  N      -0.60947485136349     -0.58226122430137      1.58572488045199
  C       0.05207156448795     -0.44701419769448      2.73491011911239
  C      -0.25186062782327     -1.19242934765601      3.87249155967592
  C      -1.29374048533202     -2.10965034379494      3.80487714261478
  C      -1.98580350504370     -2.24739650726333      2.60798949286887
  C      -1.61126057660815     -1.46682258889033      1.50739195485333
  C      -2.31613282902221     -1.57198533529409      0.20826636216035
  C      -3.11236754110162     -2.67894639940322     -0.10467820961765
  C      -3.75998390183744     -2.72091321747717     -1.33323339311645
  C      -3.59971684248242     -1.65490360009591     -2.20973582115941
  C      -2.77269261135146     -0.60076718685179     -1.82876366256036
  N      -2.14500810865815     -0.56346315683658     -0.65439588393547
  H       0.87069055356281      0.28010963333291      2.72161383717892
  H       0.32658978037168     -1.04510162480360      4.78697397193972
  H      -1.57245013517277     -2.71029363882550      4.67532970192810
  H      -2.82316633751952     -2.94265279912626      2.53335868493888
  H      -3.19716800693701     -3.51559384328578      0.59019908983360
  H      -4.37326311646893     -3.58479534726897     -1.60437014341592
  H      -4.08322875391532     -1.63917994608957     -3.18879940919871
  H      -2.57631354650049      0.25187718685392     -2.49025245404454
  C      -1.97485110892298      2.54975945964180      2.01915461953614
  O      -1.22741094484559      2.23326193128702      0.92649642643450
  H      -3.05864769784804      2.65447203412230      1.78363378694039
  H      -1.66407101744988      3.51211802629609      2.48421671659593
  H      -1.90903088046258      1.78429464642931      2.83065044384837
  Cl     -1.22857868001953      2.19261443341167     -2.61817329438213
  C       0.59920195763167     -1.17174345866218     -1.37655392399715
  N       0.72781005165615     -2.24829963250370     -1.81568317624522
  C       6.22809230905226      0.63021652195540     -3.65431365151479
  C       5.75399319804743      0.77511426491408     -2.34966811680286
  C       4.41425462485865      1.07651091834217     -2.12262460211309
  C       3.54916702127922      1.22804385303287     -3.21208067008138
  C       4.01961714736471      1.07476920673630     -4.51956768588880
  C       5.36228953788214      0.77963277037496     -4.73901233438329
  C       2.12767516849672      1.54498500051443     -2.92595658793460
  O       1.76426725490555      1.78644394428321     -1.78232549268266
  O       1.32732952945010      1.55508245149648     -3.95559292272991
  H       7.28209038612594      0.39324682653007     -3.82863472206282
  H       6.43054226308148      0.64765901932853     -1.50040597485362
  H       4.01224375666263      1.18842616646449     -1.10962271178781
  H       3.32035793593736      1.18744351884945     -5.35120449121059
  H       5.73655871524440      0.65996223278723     -5.75967765537436
  H       0.39833069829159      1.77403538012401     -3.61461796269944
  C       2.92287383727272      1.38492342865701      1.53904276931672
  N       1.88578741079132      1.22315465831594      1.00578178518236
