32
Coordinates from ORCA job orca
  Th      0.00857222028370      0.16944662661337      0.15648886944756
  N      -1.74660539446093      2.13945705807719     -1.02735459565933
  O      -2.48467278129808      2.94394482929867     -1.46450815601766
  O      -0.88490918740626      2.39744013270699     -0.11004592044210
  O      -1.71103374241939      0.92114279704595     -1.42187562735991
  N       1.29825710582044      1.05289731720293     -2.00964534524936
  C       1.59747843088062     -0.05051774789373     -2.93944091946824
  C       0.37004080500149     -0.91818168204151     -3.11924192197758
  N      -0.03698914736960     -1.47636297310506     -1.81783281732470
  H       0.75877128321597      1.77277477776404     -2.49699937079604
  H       2.16890651898927      1.50853903928539     -1.72462732237692
  H       2.42154505831680     -0.64296977759281     -2.50770302161629
  H       1.94622062028274      0.31560685588098     -3.91965905926396
  H       0.56786391092708     -1.70898589121596     -3.86138888671590
  H      -0.46858961725869     -0.31377540360931     -3.50133723263925
  H       0.56043826959079     -2.27068230152557     -1.56686172696381
  H      -0.98311009056816     -1.86560041171103     -1.86133627720901
  C      -3.51581653722020     -3.81027683073883      4.67793015608398
  C      -3.18543555830819     -2.49500873318884      5.01307364737359
  C      -2.51196038426973     -1.69796359489538      4.09742949946141
  C      -2.17387677297494     -2.22529661774239      2.84099505146703
  C      -2.51126767416254     -3.54517957084512      2.50331832278345
  C      -3.18105808385085     -4.33562732353553      3.42707236166481
  C      -1.45588262608279     -1.39406701121948      1.88815562297483
  O      -1.14021874024786     -1.81397116715487      0.71547691745371
  O      -1.09202319702948     -0.19941745804975      2.18236392533576
  H      -4.04284596273322     -4.43619850916095      5.40300685622708
  H      -3.45476401229525     -2.09520347035495      5.99333768280063
  H      -2.23993441950985     -0.66730145237707      4.33619028334483
  H      -2.23834299519460     -3.93396837280949      1.51978788824084
  H      -3.44576383028092     -5.36578639356365      3.17808286007423
  F       2.02560653163275     -0.19130673954411      0.53944825634628
