36
Coordinates from ORCA job orca
  Pa     -0.54577007547576     -0.58201757516217     -1.20053401264880
  C       4.99286460567926     -1.92196861736194      2.76253958128865
  C       4.64944329889670     -0.71720448624704      3.38036527502211
  C       3.55420257103024      0.00918715657807      2.92009649038248
  C       2.79659059874188     -0.45626289446003      1.84082007108081
  C       3.14084453239704     -1.66142572318778      1.22212302969992
  C       4.23690472932281     -2.38907980739187      1.68689486414176
  C       1.61041153039368      0.36290008057843      1.38122885532975
  O       1.31913325585555      1.38120174992730      1.99183898929215
  O       0.99537354392800     -0.10420200645801      0.35460227293445
  H       5.85162601735474     -2.49839146554569      3.12314711234824
  H       5.23855265773586     -0.34672513562322      4.22605234658671
  H       3.24582662231830      0.95359453989360      3.37662666020559
  H       2.53487017089940     -2.02285281085868      0.38294338743883
  H       4.49937325621809     -3.33432526855619      1.20168305755862
  Cl     -1.64911627811594     -1.02565005475573      1.16043486278080
  F      -0.52081018166380     -0.75251553591570     -3.24721684822736
  N      -2.23832965446931     -2.06402304783988     -1.60228455585895
  N      -3.05158855581451     -2.80676978348023     -1.15137051118521
  N      -3.84436889680676     -3.53497848352043     -0.75078197271132
  Cl      0.94725255570401     -2.75531189110375     -1.33509231763944
  Br      1.02125909033770      1.65364006428100     -2.13993996680404
  C      -1.10274934655141      5.21735397194322      1.29866700565123
  C      -0.57643543551507      3.93025531925200      1.39046805344622
  C      -1.07428916087708      2.91147860562296      0.57938735828753
  C      -2.10119530641804      3.17507377863380     -0.32902922102170
  C      -2.63281702957781      4.46720196394491     -0.41089553089965
  C      -2.13641983892972      5.48619532337315      0.39621407430140
  C      -2.66484578373854      2.11963132444379     -1.24405676191806
  O      -3.63823018171449      2.35203825728728     -1.93328424488341
  O      -2.03364560813286      0.97940316645689     -1.22842850449680
  H      -0.70606991782193      6.01967621800183      1.93040365873273
  H       0.23808855022671      3.68115406981145      2.07570789255667
  H      -0.64022690265416      1.91526490142074      0.68487813983852
  H      -3.43843296265490      4.63630496505929     -1.13059490370904
  H      -2.55067647010786      6.49734913095851      0.32018631309852
