38
Coordinates from ORCA job orca
  U       0.94424814712721      1.23754498230075      0.83057909916605
  C      -4.23150939865503      5.79858313430796      0.53727521660353
  C      -3.87635259287244      5.23061315995792      1.76379165759355
  C      -2.85121089009824      4.29640798202726      1.82126353379389
  C      -2.18069267884633      3.93730886386375      0.64030431734455
  C      -2.53849564033413      4.50862087619499     -0.59263383593096
  C      -3.56706873328019      5.43911332352647     -0.63869225246327
  C      -1.09544892164378      2.97496940969068      0.69100393505753
  O      -0.74657858358501      2.40408251576816      1.79589414369305
  O      -0.43449380038488      2.63896999592244     -0.35269286697945
  H      -5.03820617633164      6.53543316245002      0.49740971237525
  H      -4.40203441958947      5.52354769889596      2.67536774950542
  H      -2.55289354449164      3.84167291188631      2.76896761470993
  H      -1.99863372437517      4.21568503400216     -1.49637073484018
  H      -3.85439875888490      5.89188649176269     -1.59042142147109
  C       3.40392116371967     -1.28330272268382     -1.29207013381582
  C       2.68198290155185     -0.05548328534606     -1.78999564523372
  O       1.96543799185728      0.58063517912220     -0.73722003179621
  H       3.92991114785475     -1.76963876490002     -2.12753507059914
  H       2.70072108463478     -2.01107894755205     -0.85845543053440
  H       4.15174525548484     -1.02461622265950     -0.52695968582206
  H       1.95251108088836     -0.30481058419552     -2.57861511381061
  H       3.38145353365626      0.68663654583769     -2.20813158870946
  C       1.02134953417686     -0.78748671836904      2.13753811488035
  N       0.99934914613299     -1.82040725502422      2.68207167142696
  C      -2.40086081684952      0.19755953200669     -1.10888738911549
  P      -1.26985929027339     -0.46430384029654      0.16292566499450
  C      -2.33343550469510     -0.79628129272100      1.60379603450839
  C      -0.76885191338883     -2.10112402520233     -0.45916916287931
  H      -3.19802357507853     -0.53128443730358     -1.32469740442151
  H      -1.84506370184374      0.41344139973633     -2.03365020443150
  H      -2.85920462569814      1.13372870445616     -0.75493387005343
  H      -3.18898830563722     -1.42404411537577      1.30815379755380
  H      -2.70338290640161      0.15382549118767      2.01853822705178
  H      -1.74293801774882     -1.31560152844764      2.37332299852608
  H      -1.65967443580261     -2.71335802220907     -0.67164693367646
  H      -0.15264925316949     -2.60051562875340      0.30358962887948
  H      -0.18228077712472     -1.98842900386498     -1.38371434108004
