57
Coordinates from ORCA job orca
  U       0.24068056139916      0.25094535289493      0.10959770828851
  N       0.32016062374348     -0.69757984820184      2.46580747969248
  C      -0.46543677481863     -1.93545453892820      2.67267257143115
  C      -0.33314013088496     -2.83900331979588      1.46398555367623
  N      -0.65346152985596     -2.15111806230579      0.18804006600822
  C      -2.06807537510885     -2.22124283795743     -0.23383374527010
  C      -2.92952626563050     -1.23072921768558      0.51749803583049
  N      -2.34561793301420      0.13215204758006      0.41069262937023
  H       0.13449378643879     -0.03862644422040      3.22929213268673
  H       1.31709311965001     -0.92322083508324      2.56688211773740
  H      -0.12553523820358     -2.47814819872499      3.57044205684238
  H      -1.50909777821662     -1.65003645992594      2.86515856706686
  H       0.70771224377061     -3.19353339986554      1.38777743955221
  H      -0.96438978945616     -3.73505792835259      1.59393614373527
  H      -0.10361430729125     -2.63221610828351     -0.52855358160399
  H      -2.10334532105848     -2.00017054298461     -1.31540316719538
  H      -2.47244262117920     -3.24157782218948     -0.11130867529246
  H      -3.95794683771210     -1.25577249739098      0.12269916696310
  H      -3.00965840244880     -1.49631101489497      1.58063545612499
  H      -2.73237703202919      0.57040013524285     -0.43198468541496
  H      -2.71044200794014      0.71758602237266      1.16929148016452
  N       1.91182821648534      1.60891611954645      1.40495513616323
  C       3.05920879561766      1.06305611417889      1.85132918918131
  C       3.95327367543195      1.73935489207362      2.67245415430141
  C       3.64627015740290      3.04129823634909      3.05583988934276
  C       2.47041534324583      3.62151591738482      2.58306464933813
  C       1.62480923566527      2.88945991353339      1.75061078049841
  C       0.40802733636173      3.47437143299878      1.14945122334357
  C       0.01169751654253      4.79631703281956      1.36215759046429
  C      -1.09831300147080      5.30028597265457      0.68981873860539
  C      -1.78680925277127      4.47735272831191     -0.20215929219234
  C      -1.34564554194607      3.17198626424044     -0.35253904688553
  N      -0.29333496538516      2.66913698836178      0.31701850907346
  H       3.27808124329117      0.04448518360636      1.51816981179510
  H       4.87355864173911      1.24769653761628      2.99717316301594
  H       4.31832141488356      3.60848151409608      3.70621665058382
  H       2.23090219685798      4.64828441291643      2.86218477217768
  H       0.56772297465146      5.44536577102781      2.03980601378343
  H      -1.41405506292203      6.33533001837331      0.85003979758792
  H      -2.64562568165265      4.84252180514922     -0.77027368336668
  H      -1.84678224645925      2.50206050618530     -1.06090228078587
  C       0.73272179326669     -1.26834791642368     -4.12234429720932
  P       0.72640880222404      0.42058917037172     -3.54491751455075
  O       0.20300968811974      0.44900559886150     -2.01707712581520
  C      -0.40394904549557      1.41070190109275     -4.51178418427686
  C       2.37409485265636      1.10391878396476     -3.61411299603307
  H       1.45048152135242     -1.85592170726122     -3.52716829835554
  H       1.05336889454290     -1.28261300481764     -5.17787935715691
  H      -0.27723037921652     -1.70227538112680     -4.05937713352955
  H      -0.07548602213852      1.41011639842058     -5.56458416002585
  H      -0.40824105655205      2.44920354666805     -4.14681738176389
  H      -1.41983737984403      0.98934065849099     -4.46334626185840
  H       2.70757296114131      1.12165024724525     -4.66554897974748
  H       3.06151108396370      0.46600748864842     -3.03556089864434
  H       2.38011145485285      2.13386957487280     -3.22531220167508
  C       2.59640577315210     -1.38955239661465     -1.15215145034653
  N       2.06097307225183     -1.07465480511663     -0.13875827543054
