29
Coordinates from ORCA job orca
  Th      0.81015530854921      0.52608118597439      0.05661381045662
  Br      1.70031651551718      3.05538668499295      0.91303488914492
  C      -4.54610562722911     -1.99548845358917      2.74498724001585
  C      -4.14025059907389     -0.90044379236523      1.98403385783670
  C      -2.86424246832424     -0.37220830215080      2.14175695066828
  C      -1.99167986642586     -0.94229761192406      3.07616007430004
  C      -2.39614532571628     -2.05511206598589      3.82658466117732
  C      -3.67337353009866     -2.57709649801286      3.66392527166371
  C      -0.63517286912231     -0.37083204544274      3.21502357196549
  O      -0.12027395345858      0.34463075260137      2.37287293987188
  O       0.04100247691440     -0.63735266619189      4.31875496857834
  H      -5.54470676746782     -2.41760444801508      2.60373461856703
  H      -4.81162767856300     -0.46163464152103      1.24209352960074
  H      -2.53059373411492      0.46802013353846      1.52124511750526
  H      -1.70294263315676     -2.56427819814108      4.50621783782503
  H      -3.97819389770557     -3.45946349342068      4.23166366375265
  H      -0.51399035753838     -1.14902119506002      4.92220299804654
  C       1.23086101541142      0.73842031803868     -3.35848339940966
  O       1.22554527873746      0.62381580044104     -1.97590998458180
  H       0.20081506808317      0.66583480417726     -3.75010291786979
  H       1.84067486290473     -0.06348257099768     -3.81241729187650
  H       1.65826963961165      1.71042737008356     -3.66579086234417
  S      -2.21042133302956     -3.66283417680171      0.26959131733322
  C      -1.26775465966769     -2.37811188379771      0.10884300450615
  N      -0.56850424959828     -1.41947260077656      0.01055719957476
  S      -1.65714037679093      1.98743478568500     -0.41534159823745
  C      -2.03400631881448      1.14685221705015     -1.81629507816878
  N      -2.29425331190114      0.59637352685156     -2.81504149704398
  I       3.16553939206845     -1.20504293524015      1.03288510714144
