44
Coordinates from ORCA job orca
  Es     -0.38785446956581     -0.06098330954807     -0.19405356934339
  C       4.89110661033539     -2.64814896260232     -4.00775771618439
  C       4.86299782719966     -1.28921724649645     -3.69045662629105
  C       3.80024718853036     -0.76799823528105     -2.95698670523425
  C       2.76413297472105     -1.60655201141915     -2.53912340405474
  C       2.79388879043733     -2.96685512702261     -2.85579750766107
  C       3.85665940256947     -3.48690005143397     -3.59011260534977
  C       1.62068206499100     -1.04680252190613     -1.75490156301624
  O       0.70200141276164     -1.82415182412154     -1.37099181788918
  O       1.59599076172015      0.18416111165385     -1.49426066959778
  H       5.72692687240509     -3.05702524341723     -4.58348330825995
  H       5.67654226974543     -0.63474187378892     -4.01637251634453
  H       3.74546846352313      0.28956929834459     -2.68712216156950
  H       1.96736439128781     -3.59295111241561     -2.51064573164072
  H       3.88137795059188     -4.55177587004382     -3.83907954531003
  C      -2.49507243320312      3.39401151091212     -0.66107778575092
  C      -1.80514949500322      2.80974120596676     -1.87387677955655
  O      -0.65962633093274      2.05172217800896     -1.53176233798466
  H      -3.36765440481685      3.99400868742658     -0.96659489026338
  H      -1.82137685854476      4.05064826212071     -0.08274037582849
  H      -2.84145841967652      2.58306522697703     -0.00157762469902
  H      -1.51376601881808      3.60334455585635     -2.58949188743170
  H      -2.47755875864875      2.10486612308897     -2.38421547197745
  H      -0.06097874995698      2.57722534002805     -0.97289592166353
  C      -2.22147807229722     -1.76189706252157      2.00229955389963
  C      -2.24117714446039     -3.05137074390883      2.80894429422521
  C      -0.85905815765835     -3.62639448850199      2.51406499126986
  C      -0.68398520024057     -3.27654626927592      1.04874469158025
  O      -1.35288804168878     -2.02411827721773      0.89506380297534
  H      -1.79976633538864     -0.92472848786032      2.58541359499905
  H      -3.19893517401145     -1.45526554342853      1.59760659612446
  H      -3.03268156992074     -3.72925197886561      2.44477951598750
  H      -2.41951244514539     -2.86481865191350      3.87898826808334
  H      -0.77912921388182     -4.70757612462799      2.70679581272637
  H      -0.08538405530364     -3.09561446690924      3.09323868308055
  H      -1.16447978539709     -4.01358707512686      0.37760237591279
  H       0.36466593038396     -3.14248288706002      0.74785008758846
  N      -0.40493165948231      2.17265738583585      1.67043826038484
  O       0.50782195435731      2.08905500154658      0.80344763867066
  O      -1.28227520123300      1.26405032460852      1.63477592335856
  O      -0.45011893142308      3.06940292752175      2.47059807188558
  C       1.07170898487718     -0.76360421322417      1.69164000203391
  N       1.61666173719228     -1.23921583532606      2.61054394052892
  Cl     -2.78574866093087     -0.26875364463131     -1.23355758241291
