51
Coordinates from ORCA job orca
  Pa      0.07723467323680     -0.11580150450304     -0.44907073757529
  N      -2.26746562759055     -1.24904553089768     -0.55366743367866
  C      -2.72807602196464     -1.70509511704010     -1.71987522610877
  C      -4.02645089405058     -2.17860397162261     -1.87683263222834
  C      -4.86854472354677     -2.17751703963788     -0.77071706483496
  C      -4.37676674738725     -1.73234947787582      0.45063378700082
  C      -3.05812698118519     -1.27659807638068      0.52978046525521
  C      -2.43664214095581     -0.86983565600636      1.80668554914966
  C      -3.17645211351996     -0.70136271386279      2.97777050046723
  C      -2.51586481007195     -0.39765591703272      4.16191580141649
  C      -1.13333604207296     -0.27349623312956      4.14736992672497
  C      -0.47212767972441     -0.41268005565583      2.93379028765809
  N      -1.10246971138222     -0.70472285581158      1.79410134789432
  H      -2.02970701067291     -1.68090252256852     -2.55977052480312
  H      -4.35852528221223     -2.53736804544633     -2.85271055130167
  H      -5.89790153196416     -2.53600150130719     -0.85062438494367
  H      -5.00921050565812     -1.76087495997064      1.33817669054266
  H      -4.26251598616736     -0.79378972784538      2.96489774483003
  H      -3.08145086210879     -0.25591202662674      5.08618292365146
  H      -0.56802972845077     -0.03565089405314      5.04994167476123
  H       0.60657348482109     -0.26357955790966      2.86157265961441
  C       4.19971439830689     -2.32843685853542      1.15110696246963
  C       2.87788899820469     -1.74921363078142      1.12437138893152
  N       1.82450808096614     -1.27374119359644      1.06956793201268
  H       4.14643537959392     -3.37575140376198      0.82071590295049
  H       4.62964231691455     -2.26742270634464      2.16095563327199
  H       4.80148060549397     -1.74362694918940      0.43706234958172
  O       0.62625246543356      1.44861233214074      0.96197743842304
  S      -0.69391996879955      2.44119640015203      0.87914884473527
  O      -1.44558219890475      2.30609192764325      2.13091682278925
  O      -1.41410479344815      1.46249436812394     -0.23660004228012
  N       0.35888233805401     -2.24560059907222     -1.07842453268924
  N       1.21792060854343     -3.08438042880371     -1.15377870030918
  N       2.03054366778425     -3.88106259633781     -1.19174079753163
  S      -0.70394753704230      0.65751498613493     -2.99235290617289
  C       0.33492316213411     -0.36583169464690     -3.83372871595331
  N       1.04545228326637     -1.07951566379257     -4.42318529490210
  C       4.21060000127493      4.03054204092849     -3.76475910872665
  C       2.87651877956142      3.65635892085036     -3.60890345805664
  C       2.54921333173372      2.53450673320152     -2.85150738358612
  C       3.56348574338233      1.78456951064625     -2.24678981028967
  C       4.90251266713090      2.15873052019707     -2.41039583274037
  C       5.22469531892372      3.27989219065274     -3.16648452915591
  C       3.26723557527771      0.58587566034859     -1.41665783610338
  O       4.13428693710239     -0.08947869346529     -0.90384507024575
  O       1.98179093570821      0.31070162698260     -1.25845137185162
  H       4.46382207664845      4.91233221936382     -4.36011415423634
  H       2.08295518119094      4.23874961297173     -4.08418850864992
  H       1.50546202017204      2.22797349247970     -2.74184404801502
  H       5.67361137374350      1.54999109880384     -1.93239124114207
  H       6.27037649427730      3.57217216189045     -3.29393073601967
