37
Coordinates from ORCA job orca
  U       0.83493763822774      0.75041456606268     -0.47767457472652
  C       0.64043123949775     -0.04845486994845     -4.99127595671765
  C       0.51160641623735     -0.43078647321821     -3.55626185525574
  C       0.24682670862678     -1.75754213002021     -3.18095857349502
  C       0.04339660732377     -2.16078280998942     -1.85668833573359
  O       0.10965126472296     -1.34779905804396     -0.86432237737554
  C      -0.28088188540579     -3.57857747367250     -1.52507077690361
  O       0.64721534416721      0.51163615611673     -2.70043336861035
  H       0.46361769094145     -0.88904477847861     -5.67297125516632
  H       1.65173093406983      0.35501509929474     -5.16320236613265
  H      -0.06572782515817      0.76712390357509     -5.21436646099287
  H       0.15258384215507     -2.50637870846952     -3.96730856167729
  H      -0.35981471299263     -4.21515855443284     -2.41459543267581
  H      -1.22699193316598     -3.61442378634015     -0.96176753427040
  H       0.50336942443066     -3.97843275611677     -0.86166837804041
  N       2.87038573201631     -0.02008633679303     -0.33477736826644
  N       4.04447955747252     -0.30243768308296     -0.31451591878208
  N       5.14431456803661     -0.57958536591803     -0.29043681082441
  C       0.39062745574751     -0.06802323359900      4.72608273565216
  C       0.25070569336187     -1.11547047338943      3.81815281589968
  C       0.31598803864126     -0.83163911373964      2.45990524987754
  N       0.50708663754235      0.41258122092683      1.99681361704993
  C       0.64103361772678      1.42217000399124      2.86991101469715
  C       0.58801018028733      1.22436856178124      4.24348249695417
  H       0.35016165111835     -0.25765178150340      5.80187131211189
  H       0.09836800264983     -2.14314473092656      4.15387651777222
  H       0.21698022839532     -1.62034521902755      1.70582686152318
  H       0.80481122322561      2.41263568267155      2.43554832133783
  H       0.70705987559894      2.07245296202362      4.92080428034535
  O       1.21330589671339      2.73059522512498     -0.11117347231813
  H       1.57318723963540      3.62251066385376     -0.11755802592103
  C      -4.19132714398144      1.92374445693935     -0.08581971643637
  C      -2.79315276031939      1.57133823447171     -0.17941982418423
  N      -1.67490252047521      1.29207838358973     -0.25577747891719
  H      -4.79122708188177      1.23503847362491     -0.69919415530677
  H      -4.34079865881710      2.95208790145855     -0.44757949641681
  H      -4.52334818637250      1.85727384120349      0.96094285192611
