51
Coordinates from ORCA job orca
  Am     -0.64904800567539     -0.52628530523184      1.19781102524307
  C       2.76521687999652     -2.69623652772246      2.73369475550648
  P       2.85687313406265     -1.39320259650703      1.50213973666729
  O       1.60915990482116     -0.47459434539551      1.56860194442928
  C       4.32980769864454     -0.41152651990538      1.81280723964439
  C       3.00791982906055     -2.16175206376419     -0.11356411175215
  H       2.68098670782091     -2.24701685278295      3.73489688403872
  H       3.65858583512456     -3.33784685523484      2.69511812035540
  H       1.86453907487917     -3.29265652797818      2.51421715525049
  H       5.23502178295213     -1.03593152345968      1.76953709237945
  H       4.25329518509386      0.05095061152457      2.80843875616712
  H       4.39974834350099      0.38476237031728      1.05637677841692
  H       3.90948828117494     -2.79076798708833     -0.16648309970670
  H       3.06067131279018     -1.37909304160550     -0.88580486714509
  H       2.10873833139479     -2.77941356050697     -0.27267288495250
  N      -1.68119539967589     -1.21794229244921      3.44324036470207
  H      -2.66410913714101     -0.98934595489703      3.26761951089929
  H      -1.44010635820662     -0.83624241618257      4.35875408212384
  H      -1.62144291238054     -2.23607794631515      3.51667272338544
  N      -2.88809717401654      0.05396214283938      1.09574354923929
  N      -3.49962074539757      0.58501399495319      0.21042338397304
  N      -4.07328317885721      1.09804834262004     -0.63986177254017
  C      -1.85610729527557      3.16017172243074      2.66876884330426
  P      -0.67408057631861      2.50096198206515      1.43511851985037
  C      -1.25250556513731      3.25796497574107     -0.12893944788873
  C       0.86896033342288      3.42278727226757      1.79464275902238
  H      -1.94210580137297      4.25632696581650      2.59737152914901
  H      -1.52640353286873      2.89495275598052      3.68531430935123
  H      -2.84295168579600      2.70460409266706      2.49463226970044
  H      -1.28157913221235      4.35654034243525     -0.04385660348220
  H      -2.26177967819161      2.88979884354166     -0.37389111964918
  H      -0.58083113219414      2.97326074102146     -0.95301147386331
  H       0.70154979508812      4.51204296791866      1.78802760341850
  H       1.62788587915551      3.17246508516565      1.03732376147958
  H       1.25863208712700      3.12516278136700      2.78033314913436
  C      -4.39644825977494     -3.09635127463765     -3.18458914995072
  C      -4.58513557213545     -1.80174416504505     -3.67340918350091
  C      -3.68949122080383     -0.79743105914085     -3.33188762851621
  C      -2.59766909724764     -1.08655253890613     -2.49831883224904
  C      -2.42102140013588     -2.38276094188067     -1.99567123220219
  C      -3.31922406150928     -3.38463112635697     -2.34718291094141
  C      -1.63573584397811     -0.04214190692465     -2.11374537766813
  O      -0.90522997060263     -0.12966327312698     -1.12384075825073
  O      -1.51869172431913      1.03070553776414     -2.86106280638164
  H      -5.10373749517486     -3.88495641236662     -3.45427018470012
  H      -5.44440000740806     -1.57285707978066     -4.30764144531792
  H      -3.88913456912987      0.22451424883969     -3.67220018295890
  H      -1.57748563006980     -2.60941359308043     -1.33663064697916
  H      -3.17663450570602     -4.39664588097858     -1.96078650013934
  H      -2.10195545675122      0.97586916194118     -3.63261421293582
  Cl     -0.31923827064559     -3.12758536996561      0.92041058684051
