31
Coordinates from ORCA job orca
  Md      0.50483668387256      0.80263873980427     -0.04853690317892
  N      -0.31006331432875      0.33774777189977     -2.36153818814117
  C      -0.93532291550490      1.32032599450416     -3.01258351971209
  C      -1.38250501997574      1.17742733268232     -4.32337852432212
  C      -1.16639438501533     -0.03600173060969     -4.96628680013945
  C      -0.51733335089065     -1.05897186167374     -4.28269654545828
  C      -0.09599676570293     -0.83862638441254     -2.96857189110429
  C       0.59349442750141     -1.87697339147959     -2.16539851140321
  C       0.99151642007514     -3.10057393046643     -2.71081525453249
  C       1.62331543966161     -4.03387809733812     -1.89637717119366
  C       1.84143756556699     -3.72257250745502     -0.55976100500276
  C       1.42388645402783     -2.47842743486161     -0.09390165462800
  N       0.81859428471280     -1.58261771819611     -0.87488767357341
  H      -1.07233785931820      2.23624619817776     -2.42390618651007
  H      -1.89095198344727      2.00578757873847     -4.82040597116435
  H      -1.50387949385667     -0.19276693555350     -5.99410065324930
  H      -0.35215056405223     -2.02011668006984     -4.77034465408120
  H       0.82218645107286     -3.32323230852419     -3.76455413500497
  H       1.94414349312230     -4.99431438207943     -2.30791253218146
  H       2.33156835374639     -4.42241393038489      0.11967694832732
  H       1.57247292629180     -2.18216631687179      0.94880011862808
  Cl      2.83795104107403      1.28584822829439     -0.78969287403291
  N       0.73273271755001      0.43608665686595      2.73994573536130
  O       0.61273397025608      1.57445502076407      2.20680774359235
  O       0.68357034042024     -0.53966936686551      1.92198602499210
  O       0.86974374152494      0.27576743884889      3.91403774346876
  O      -0.69521784737271      2.57339766080870     -0.36316360571157
  H      -0.51466036353868      3.48165767159261     -0.10755688441450
  O      -1.88908626498005      0.52988929176583      0.37683216879535
  H      -2.15348210297471      0.42688970924957      1.29813442763617
  H      -1.81950207951817      1.51835768284531      0.20435022793898
