33
Coordinates from ORCA job orca
  No      0.27860227645920      1.17596852016294     -0.30257168222465
  C      -0.92011411404033      2.25686888942054      6.74017455207667
  C      -2.00443018125711      1.99340238813413      5.89982774766526
  C      -1.80752859009249      1.86941224958023      4.52529952476986
  C      -0.52848625516938      2.00267971312497      3.97923468308407
  C       0.55363299811817      2.26247631520491      4.82347019674278
  C       0.36002410817053      2.39207985837937      6.19819818624411
  C      -0.31709715925005      1.85569512144713      2.47723427950817
  O      -1.33001886273016      1.66096145458354      1.77786795731824
  O       0.86589318764970      1.92992621892868      2.06663254548610
  H      -1.07306518401070      2.35460435666981      7.82045765407084
  H      -3.00866183319146      1.88290439683403      6.32341938585941
  H      -2.62351796623127      1.66357378218878      3.82650006691504
  H       1.53787569106525      2.35120793133986      4.35484598439877
  H       1.21197810028636      2.59682538022072      6.85558647571487
  F      -0.52878299062377     -0.86026447831714     -0.29079135793734
  Cl     -0.94736162373785      2.95178626011781     -1.98755698799367
  C      -0.18546641980908      0.26920664284544     -4.77569122002265
  P      -0.24399976058487     -0.23416168245244     -2.99245157068089
  C      -2.06646450922431     -0.31459495603035     -2.75293347463559
  C       0.12972240920445     -2.03866575279701     -3.07610386181045
  H      -0.84259214842302     -0.33085218433787     -5.43346396737830
  H       0.85078043221824      0.21425470742730     -5.14818429057954
  H      -0.50020656490105      1.32581837993896     -4.79823699194121
  H      -2.58328474953531     -0.90611090846317     -3.53213808955512
  H      -2.43786959145712      0.72253472737242     -2.72426120603708
  H      -2.18908236742804     -0.76286253310835     -1.75419863470916
  H      -0.51375773558576     -2.60228369878380     -3.77758841457615
  H      -0.03385757621310     -2.37124841642533     -2.03768480554610
  H       1.18966744376463     -2.19616398696691     -3.33323392483608
  N       3.35895610528468      0.11648141502942     -0.68269575316626
  O       4.51836768776296      0.26844056974140     -1.03227101621394
  O       2.61344574351207      1.13729931898984     -0.78719199001011
