45
Coordinates from ORCA job orca
  Th     -0.32330103370620      1.81826015709841      0.92050434930971
  N       1.64999881422602      0.58235324964039      0.59424909657911
  C       2.18608009541112      0.53790985630690     -0.65194594187323
  C       3.32877103256025     -0.18881820906852     -0.94020549270645
  C       3.94056541116222     -0.89408078605998      0.10234708399705
  C       3.39237354469138     -0.85025990932200      1.39041753962332
  C       2.24321193050082     -0.10434342321121      1.62145799712674
  C       1.57104574500707      0.02920688982988      2.92580580882904
  C       1.98748485229488     -0.57867532111033      4.10389526873926
  C       1.26219640618120     -0.36740465290969      5.28334001466939
  C       0.12846069356622      0.45235058902637      5.26722059773982
  C      -0.23927290601527      1.03106555021577      4.06348766792214
  N       0.45821511812205      0.82745202088081      2.91862957008177
  H       1.68309268924277      1.10945415063793     -1.44842909133641
  H       3.73501646362636     -0.20210859568287     -1.95651044515887
  H       4.84806399946925     -1.47997587675159     -0.08536400188541
  H       3.87603298264362     -1.40229585109226      2.20038068155044
  H       2.87280937377831     -1.21934485321334      4.12388039114862
  H       1.58545568508872     -0.84396570857600      6.21629586202206
  H      -0.45775795281725      0.63898588599156      6.17261243438434
  H      -1.12578622774184      1.68470196808051      4.01872103302972
  C       1.24564376639840      6.62836634039353      0.89245721906342
  C       1.82411257478278      5.55656049934157      1.59041946164896
  C       1.25068938404137      4.30806694920479      1.44546482833162
  N       0.16010841192933      4.08839279587528      0.65995047058152
  C      -0.39830389695326      5.12844956061468     -0.01611197003835
  C       0.12416742806882      6.40747180727255      0.08151463513597
  H       1.67054391611063      7.63546693608566      0.98294240504150
  H       2.70045790227126      5.69994751424758      2.22976584343514
  H       1.68200308856035      3.43704862436857      1.97915539717730
  H      -1.27690377919150      4.92286050325746     -0.63834292143306
  H      -0.34400914143712      7.22857719919968     -0.47151060816369
  C      -2.97660948994042      1.34943043092964     -1.14304761203823
  C      -3.57686182159842      0.15401812297730     -1.83604811482559
  C      -3.53408356372909     -0.93228304903920     -0.76739452526055
  C      -2.15478554941694     -0.78580151773056     -0.18119952555707
  O      -1.91231216811667      0.73153038544734     -0.22135259768954
  H      -3.68241119008958      1.86325061245212     -0.47151655916139
  H      -2.45015860662742      2.05608401122028     -1.80485973283401
  H      -2.99279150077362     -0.12369430815532     -2.72800872643400
  H      -4.60374008415898      0.37761039421560     -2.16937193074796
  H      -3.66799649511675     -1.94216226401474     -1.18885377698408
  H      -4.31239390927471     -0.78805001972850     -0.00087344531326
  H      -1.36351543570357     -1.22327317876597     -0.80876225789891
  H      -2.05560655732660     -1.09453548038037      0.87239362017188
