35
Coordinates from ORCA job orca
  Cf     -0.39737811078892      0.30924259635732      1.00225458776599
  C      -1.18826288725417      0.78543522358159      4.20677987586140
  O      -0.99337750620366     -0.19558429311888      3.11966974698539
  H      -0.46139726730880      0.58343649318378      5.00533994636327
  H      -2.22125772128246      0.71135603872020      4.57286307273772
  H      -1.01195286673123      1.78506621662707      3.78105496816164
  H      -1.14867812408617     -1.08893653609398      3.48058540415542
  C       1.54057162774297     -1.33735719026638     -1.03912658722182
  C       3.03283302151910     -1.52847726667361     -1.13969752533824
  C       3.40657664913296     -1.98353482463627      0.26630460137968
  C       2.60319252965531     -1.06585936117658      1.15546769895918
  O       1.34690812803359     -0.79193067159387      0.35045689855438
  H       0.98428320759090     -2.28641223875298     -1.08154209625069
  H       1.11883098610614     -0.59958660344176     -1.74178776592282
  H       3.53574350116360     -0.58630870884100     -1.41156000805517
  H       3.28472425676339     -2.27449721429333     -1.90921207336783
  H       4.48359765796896     -1.88549408317715      0.47331346704855
  H       3.13032990660742     -3.03641814643399      0.43510151074305
  H       3.08324032012352     -0.08715607251791      1.31165983874331
  H       2.28665343219044     -1.50913694590714      2.11141674225436
  C       0.41027617832676      2.76518540125120      0.31664361170239
  O       0.76792992179753      3.77859627380417      0.01917942182429
  C      -4.11048411259983      0.20387192146499     -0.10252516612880
  P      -2.54010067096689     -0.48928907443680     -0.70912351518675
  C      -2.75378240007188     -2.29295806612398     -0.80328853112841
  C      -2.32033791876195      0.11506263704397     -2.41198784959243
  H      -4.91519731537483     -0.10985269875855     -0.79115856424128
  H      -4.08761799899793      1.30521877609556     -0.08856826706991
  H      -4.35522702512131     -0.17608857002126      0.90174256640984
  H      -3.60968932373565     -2.50590927319287     -1.46777570113170
  H      -2.97528765399084     -2.72236628542729      0.18618457124360
  H      -1.86245185621154     -2.78073472997848     -1.22721402272839
  H      -3.20403598796643     -0.19002158711325     -3.00049921584981
  H      -1.42917632737176     -0.32627722682409     -2.88463075889294
  H      -2.25499824989630      1.21421609067160     -2.44742088278649
