39
Coordinates from ORCA job orca
  Es      0.95782216753899     -0.16303206642410      0.57346466122436
  O       3.07644070073796     -0.82843843714153     -0.06391284162071
  S       3.38937322294103      0.68757118836894      0.18296521871431
  O       2.74064386785193      0.84908365382916      1.62658561979366
  O       2.22691124138547      1.30855896519608     -0.69240512419263
  F      -3.88526212337852     -0.54297031674920      0.31359885573989
  P      -2.49543222260657     -1.08499661088399     -0.27580596273798
  F      -1.63670663789057     -0.61196867819913      1.04959707939398
  F      -2.68314590451316     -2.59859212173814      0.18791461604698
  C      -0.42640633542797      5.02691419813728     -0.35465528852139
  O       0.01175427280123      3.73083062643439      0.01429305492070
  P      -1.04628070003045      2.58532660437500      0.47803043278235
  O      -0.68124022639881      1.34306294237043     -0.59397931695624
  C      -0.52088119176427      1.62707470280611     -1.98706717353105
  O      -0.12606518481803      1.81573144920586      1.63986436356904
  C       0.38043756651782      2.53011557998438      2.77324986369778
  H       0.13262444870827      5.76919149329010      0.23317861782850
  H      -1.50708823648254      5.16263439740066     -0.17233501220352
  H      -0.21881132716010      5.19029991018999     -1.42283315719436
  H       0.45113753014433      2.11387022684207     -2.15040450280856
  H      -1.35267719938289      2.25340431102900     -2.35041293192828
  H      -0.54572342962271      0.66024307403714     -2.50800264756034
  H       1.43258034224737      2.22851550785462      2.88438894744214
  H      -0.21089348970466      2.27205484370752      3.66380017991843
  H       0.34002972381521      3.61462790944470      2.59118377418296
  C      -0.06668831413105     -6.90018966404459     -0.79491329235511
  C      -0.49181824447046     -5.94447403770922     -1.71915925137888
  C      -0.37815705547702     -4.59123656438448     -1.41844086199166
  C       0.15741326670407     -4.19607282703992     -0.18882554414211
  C       0.58295963304810     -5.15372345267028      0.73696837371828
  C       0.47072999270160     -6.50604208544134      0.43154898775589
  C       0.28575294838420     -2.75912987085942      0.13650079399124
  O       0.73341667372558     -2.39451304659137      1.25438130425514
  O      -0.06022190377775     -1.88067221831233     -0.73045020847236
  H      -0.15274797687636     -7.96379762869279     -1.03408306707179
  H      -0.90862741588581     -6.25931559763616     -2.67937760759421
  H      -0.69380180292495     -3.82054162603312     -2.12537857378453
  H       1.00332634098083     -4.81199712398024      1.68571601298416
  H       0.80532298249067     -7.25880760997201      1.14991160808592
