39
Coordinates from ORCA job orca
  Am      0.32582597749262     -0.44583335622436      0.27389344751230
  Cl     -0.90658247628886     -1.57386892363890      2.39600214577541
  C       1.80520788820558      0.51890044391987      3.94660705840990
  C       0.69550048443211      1.36270629882989      3.37731188134020
  O       0.77484265455661      1.34395159657035      1.95607105614769
  H       1.78278636818450      0.56120411923700      5.04627784194060
  H       2.78871244789505      0.87143013721620      3.60068971894731
  H       1.68802977761178     -0.53208299032458      3.64203077103050
  H       0.78343154097506      2.40860944749474      3.72290403011892
  H      -0.28574461767596      0.96777662300177      3.69597378807938
  H       0.04431773584030      1.84980351743643      1.55246666009080
  O       1.80551867600815     -2.13145588876864      0.26988570487241
  H       1.74515354415309     -2.96431896411327      0.75246838321414
  F      -0.82832927684552      1.31665989710649     -0.00365215160126
  C      -5.46221812200073     -2.33476210022386     -3.82276523528932
  C      -4.12457816870550     -2.03174188561343     -4.08246645744022
  C      -3.23558782070156     -1.85960053325681     -3.02741842956808
  C      -3.68606918177326     -1.99267149930497     -1.70973647554722
  C      -5.02697216579200     -2.29667528692855     -1.44939546055463
  C      -5.91279093791639     -2.46635230346783     -2.50871540726695
  C      -2.71919066743866     -1.79948879289088     -0.60651886438084
  O      -1.53431724752405     -1.54181157724705     -0.83506693234644
  O      -3.21072431440216     -1.92042441290178      0.58823222299465
  H      -6.16078625117372     -2.46998655719386     -4.65301686940825
  H      -3.77694080662880     -1.93042821227269     -5.11370676359248
  H      -2.18297242122433     -1.61961423133288     -3.19650687077071
  H      -5.36032892034294     -2.39538357680925     -0.41422673954221
  H      -6.96116960032651     -2.70267817748886     -2.31000847060471
  H      -2.47842810737146     -1.80110760702550      1.27584602465108
  C       1.34183680972053      1.33345527650413     -4.45339504783567
  C       1.02524850528583      0.61166463553493     -3.23921258607717
  N       0.77217921668220      0.05074286684628     -2.26312402586648
  H       1.48631737523668      0.62975078800120     -5.28577596243234
  H       2.26564180001237      1.91250790891423     -4.30823902919522
  H       0.52114863794471      2.02287496665664     -4.69988876422459
  F       5.04653704542189     -0.33249189765096      0.35669633817799
  P       3.75038509188951     -1.32963015616989      0.26492013576469
  F       2.79605588865467      0.00591133842171     -0.11935621827922
  F       3.52685363793014     -1.27234093084197      1.86341555275665
