40
Coordinates from ORCA job orca
  Np     -0.19145151386074      0.55665545196068     -0.34425902407693
  C      -3.61240551394635      3.37830143618146     -1.03927307477773
  C      -2.20813199073938      3.06692309195524     -0.69830435069366
  C      -1.24168748459685      4.06057781283917     -0.50452711882898
  C       0.08674824522461      3.78525527206189     -0.17725232479500
  O       0.50111053251573      2.55417065657939     -0.04143648757798
  C       1.09579567390427      4.84606437840212      0.03411168077811
  O      -1.90423325682143      1.80524395857042     -0.58780658923770
  H      -3.81810454938499      4.45494884195680     -1.02614780882382
  H      -4.28781727182534      2.85609071253658     -0.34201760857509
  H      -3.83016213191813      2.98010682171496     -2.04625479811215
  H      -1.54528058395640      5.10322869251130     -0.60143764033159
  H       0.66916275923255      5.85203216654995     -0.05339953247329
  H       1.90483742989035      4.72756862764360     -0.70750315895397
  H       1.55748832907195      4.72320498829289      1.02810448674727
  C       3.12578245544282     -0.42254756863488      1.76285156912783
  P       2.53714306712144     -0.45801700782991      0.03424979831013
  C       2.82261380775562     -2.16403684710673     -0.53640028850835
  C       3.71150890540161      0.58741834048124     -0.88547426681660
  H       4.17907234421617     -0.74595203255426      1.80387262902481
  H       2.53217383319918     -1.10373017049217      2.39227489231544
  H       3.05798194159458      0.59633258523520      2.17459020179507
  H       3.87541889976000     -2.44200125571560     -0.36489683377065
  H       2.59889535280061     -2.24091274428348     -1.61086787914449
  H       2.17734364412383     -2.86807696943017      0.01123104889462
  H       4.73966018193734      0.22634423738468     -0.71901943109711
  H       3.63891689027644      1.62984588418492     -0.53929416537166
  H       3.48654541690546      0.55194093490457     -1.96197243630542
  C      -3.19272562048428     -3.41727013728066      1.07822990030800
  C      -3.46258169705431     -2.69748392508619     -0.08585264777588
  C      -2.65107644555448     -1.61896998373121     -0.40485828653703
  N      -1.61720565623267     -1.25203592342843      0.37602813268614
  C      -1.35791132798030     -1.94539496027271      1.50064822852607
  C      -2.12201325204091     -3.03485135678898      1.88836998584283
  H      -3.81492045819370     -4.27331132183905      1.35426255087690
  H      -4.29149991947884     -2.96808085663096     -0.74354913280968
  H      -2.82369425565573     -1.02757560886615     -1.31135609317278
  H      -0.50886371104698     -1.61269789679435      2.11272574926787
  H      -1.88429915999630     -3.57234402883680      2.80887727771757
  I       0.24956609039352     -0.13316429634440     -3.02736715365111
