45
Coordinates from ORCA job orca
  No     -0.38635341234907      0.37859695844198     -0.47832113528932
  C       0.57127684448498      3.76897697840528     -0.78660417644677
  O       0.96970970047096      2.39673150203342     -0.90850067868074
  H       0.83277955695974      4.33620637601522     -1.69253166060786
  H       1.03811107482414      4.23837678916962      0.09246348501701
  H      -0.51956260154954      3.78515559779889     -0.65946942578077
  H       1.93364462070010      2.36236069816385     -0.97954129671105
  C       2.43430968577700     -1.47315559933089     -0.11753320190832
  C       3.00353636403947     -2.38877451369717      0.94410694985451
  C       2.97177517509877     -1.49282969107972      2.17703506902910
  C       1.65077379276710     -0.76535292684009      2.01552165405991
  O       1.43761531538211     -0.67799621048330      0.57882158761135
  H       1.93661278939092     -1.99728944515402     -0.94911748685121
  H       3.20180505000090     -0.79412954195919     -0.52746792387569
  H       4.01154499326920     -2.74660374361348      0.69110616918885
  H       2.35842118723950     -3.27236267067351      1.08303722463691
  H       3.81144001236583     -0.77981446067804      2.15990161309208
  H       3.02604837382471     -2.04931813686209      3.12327644570865
  H       1.65470404426121      0.25428601557046      2.43190860759510
  H       0.81002606475374     -1.33277343515783      2.45151561568969
  O      -0.27017455600039      0.41905062978966     -2.90690492029804
  H      -0.65658984681877     -0.16493372748981     -3.57463818691312
  H       0.18222509413828      1.11528609495299     -3.40491599456421
  C      -2.45761157308378     -2.75624264531017      1.04698085246852
  P      -1.79696903147306     -2.26393386699641     -0.58901796493476
  C      -0.72113767423477     -3.67624957049482     -1.04192284685709
  C      -3.24092594012556     -2.46349765195749     -1.69756299854527
  H      -2.91686063238529     -3.75679460253853      0.99715304560420
  H      -3.22050013636157     -2.03623433244930      1.38176868163485
  H      -1.64962142193837     -2.77940477185570      1.79493883516660
  H      -1.28391753228241     -4.62291938225718     -1.00170655003557
  H       0.12555243603606     -3.74469263136364     -0.34132837797340
  H      -0.32277833752086     -3.55001549208072     -2.06064185380813
  H      -3.66378552191412     -3.47698863076711     -1.60585094572913
  H      -2.94786519821200     -2.30342842243467     -2.74679730824328
  H      -4.02595338172378     -1.73501945394773     -1.44156611114030
  C      -3.26269506489964      1.71555475984455     -0.86765283798357
  C      -3.12047277316661      2.04406147591286      0.59530217687790
  O      -1.83137937613641      1.56808492713860      1.03632959505167
  H      -4.24204062835102      2.04760756760083     -1.24341175602987
  H      -3.21066431365203      0.62513734203171     -1.04493982117373
  H      -2.50168392188083      2.23006824076886     -1.48220337811964
  H      -3.90877848423838      1.55488562584173      1.18985223435094
  H      -3.18195994577398      3.13114429132895      0.76588372378486
  H      -1.70463086971237      1.79068368666328      1.96934527207816
