37
Coordinates from ORCA job orca
  Bk      0.50443599553428     -0.00237221541944     -0.02535222883949
  N      -1.40175310514110      0.20685180332091      2.17120160080934
  O      -2.22881241097278      0.30959920473903      3.04894997081900
  O      -1.23238527537707     -0.86973162783820      1.54336544496900
  O      -0.66731197576889      1.17274256159283      1.83600341170384
  C      -0.83440868794734     -3.53589481420135     -6.02382450490672
  C       0.00644858840209     -2.42144781160265     -6.04273116314104
  C       0.32304085459922     -1.76661610991722     -4.85411370670028
  C      -0.19687465748742     -2.22443087753681     -3.64141610882307
  C      -1.03727854590973     -3.33970979185915     -3.62422335993200
  C      -1.35633591090930     -3.99402209546865     -4.81246310991852
  C       0.14013658839692     -1.50967057745960     -2.35730925703734
  O       0.86114744712340     -0.48451376835679     -2.42313885278125
  O      -0.32648012105054     -1.96303237591040     -1.28423071870088
  H      -1.08462663475330     -4.04963460580927     -6.95792199078434
  H       0.41537647204180     -2.06156460836708     -6.99227021118543
  H       0.97378649330986     -0.88853510685457     -4.82406847177282
  H      -1.42493659412076     -3.66354217756851     -2.65453290937357
  H      -2.01735366476967     -4.86665617804545     -4.79759411996054
  O       2.15732031164642     -0.94964311772217      0.96269200013102
  S       3.15929426679166      0.36331348078088      0.70212494192490
  O       3.57231895915268      0.83479013530259      2.05952478994361
  O       4.29924687135850     -0.15692778902183     -0.11379002182176
  C      -2.42065763648207      4.98571467140202     -4.22632269197550
  C      -3.14942690331625      3.82229376916345     -3.97155664652289
  C      -2.65073764371863      2.86713032174103     -3.08760710907086
  C      -1.42082805605963      3.06688418258171     -2.45670172509337
  C      -0.69301014599260      4.23062264166141     -2.71461888165087
  C      -1.19185060043448      5.18884443807945     -3.59515486808371
  C      -0.87315391306199      2.01949254313662     -1.51280433506493
  O       0.26499106102860      2.22782721719941     -1.01748610380714
  O      -1.56795371767770      1.00405348396176     -1.29431520404768
  H      -2.81047399960734      5.73608079057311     -4.92221325191355
  H      -4.11118982345871      3.66027337969593     -4.46933925497380
  H      -3.18667999744033      1.94092376972817     -2.86213496723468
  H       0.26799942609142      4.34455746263783     -2.20561775497925
  H      -0.61832331401909      6.09964979166088     -3.79570863020292
