33
Coordinates from ORCA job orca
  Lr      0.28933687296310     -0.15862463171548     -0.04028707861670
  C       6.10930838647254      0.84467671980979      2.73515891270195
  C       5.36012221761384      0.16757599727595      1.77251070496465
  C       3.96635595205308      0.22700966327682      1.79260439500390
  C       3.31024439536028      0.96315412599234      2.78286215737939
  C       4.06603190102179      1.63336621410817      3.74992877314608
  C       5.45776424033107      1.57981319715387      3.72868797971469
  C       1.78886604658935      1.05718410838051      2.84965897560867
  O       1.29502547250523      1.66519054558501      3.79309641851325
  O       1.16528855250882      0.47375616746518      1.90282844159009
  H       7.20374023460396      0.79869083360659      2.71316775940069
  H       5.85892693487428     -0.41772839708992      0.99391907394806
  H       3.37826988324158     -0.31175149058754      1.04485342499096
  H       3.51060362267164      2.19096644248261      4.50952287039616
  H       6.04124408882740      2.11221667463511      4.48827868164576
  C       1.93227987321383     -1.98427970731664     -0.19896617369253
  N       2.71547222828540     -2.84534424028770     -0.31356648358706
  C       1.24789209956202      0.25528433112307     -3.96873329146457
  C      -0.10397771036107      0.45277502711303     -3.28975139708114
  O      -0.19007944388932     -0.21038641178244     -2.10204588719204
  H       1.30027038259132      0.78016343206667     -4.94135250368353
  H       1.43505253157959     -0.81886650788814     -4.13554064499590
  H       2.04468269573343      0.63909280505204     -3.31152106291455
  H      -0.90447197258950      0.12120558766132     -3.99817328160480
  H      -0.26560172937811      1.55119141133375     -3.16275200007945
  Br     -2.13492611315297     -1.04792760677703      0.90922456575425
  N      -0.78430237176351     -3.22544265985372     -1.83231557566666
  H      -0.67494810859204     -2.26516242329804     -2.18442144189404
  H       0.13946760299181     -3.43254800345230     -1.44373110027327
  H      -1.37534504253121     -3.09023899371050     -1.00693681375509
  N       1.18140354897381      2.48134296915617     -0.81374033252844
  O       1.94596417862196      1.50023608726023     -0.85197430914835
  O       0.04533854906631      2.21810873322114     -0.36289375658047
