50
Coordinates from ORCA job orca
  Md      0.18165638338809      0.39505617879835     -1.02274102481274
  C       2.45981368409839     -2.03078755317494     -1.29857846969700
  C       2.51058907399961     -1.45607343545852      0.12049260163209
  O       3.22349779970840     -1.95873496549521      0.96753659408128
  O       1.75495185143307     -0.42226730360062      0.29476075205007
  N       1.17376761633844     -1.73698909541953     -1.92809477250011
  H       2.69327157739396     -3.10686352127111     -1.25146415547577
  H       3.26818728067473     -1.54389633479478     -1.87153369839416
  H       0.47556519127772     -2.39868415877784     -1.56313435404906
  H       1.21486817631271     -1.87135578423038     -2.93781197111975
  C       2.31648159367808      1.30102723460373     -2.50262467695610
  O       2.99749269517474      1.93204743331123     -3.14227988104449
  N      -0.42945314490900      1.36498948502080     -2.95713037179292
  N      -1.22960803135484      1.78641693977253     -3.74054662087508
  N      -1.98888273917892      2.18015032208768     -4.50420461556950
  C       0.32957829070839     -2.35080907932792      2.54051394318490
  C      -0.05468018506195     -2.82978821845916      1.22991533846576
  N      -0.33646962777486     -3.18808979843967      0.16404023961651
  H       0.15580544632563     -3.13067267370833      3.29608339821247
  H      -0.26841142283767     -1.45579127733459      2.77638563665743
  H       1.40217955567010     -2.09148295232951      2.50599146114852
  C       1.59880324711768      1.72736917494368      2.51383406924858
  P       1.14751291339635      2.93734086231517      1.26371764150999
  O       0.86946773728129      2.34064144716741     -0.12750388014848
  C       2.51814164327480      4.10290525499239      1.12701619347669
  C      -0.28385539180199      3.83730821806775      1.87560334236784
  H       0.68943692714070      1.17562753391055      2.79672778069507
  H       2.02518148836225      2.23555059716838      3.39232690631313
  H       2.31008425678996      1.00795851219501      2.07832814558383
  H       2.27075056869137      4.86165672119443      0.36984678881196
  H       3.41565494316056      3.55548215906031      0.80129870421558
  H       2.72080659967748      4.59388592373126      2.09056277964949
  H      -0.58536299121042      4.59113799300584      1.13338957877364
  H      -0.05691157754451      4.32531693033612      2.83572699930674
  H      -1.09793418102967      3.10733826862308      2.01424864747400
  C      -1.89024738851854     -1.47435896446602     -3.00562257800131
  C      -3.34053570752274     -1.11663090442810     -3.33013547270987
  C      -4.01336316142693     -1.04986015693879     -1.94363618864080
  C      -2.89683617286766     -1.42947238637420     -0.97649252374766
  O      -1.69944665347968     -1.04706525266369     -1.65978655166639
  H      -1.15132445014088     -0.95987758858035     -3.63566816333042
  H      -1.72292968809787     -2.56788880194175     -3.05426013556859
  H      -3.79643667306472     -1.86769613708191     -3.99192127121831
  H      -3.39070357525879     -0.14512736961394     -3.84380493478132
  H      -4.87439798686621     -1.72772271107358     -1.85019601009736
  H      -4.36985132726060     -0.02991866113039     -1.73543435445275
  H      -2.85319160580328     -2.51843651392820     -0.79507364052056
  H      -2.91792259405207     -0.90778349644932     -0.01180513894724
  C      -1.24735641695384      0.48523724083561      0.95393528707409
  N      -1.68993384705680      0.59898066535092      2.03050262656828
