62
Coordinates from ORCA job orca
  Th     -0.08775780231024     -0.56286623765406      0.32831712781198
  C      -6.55771125421830     -3.27463891504344      0.84544589817805
  C      -6.19504428011285     -2.63735213922998     -0.34313140337278
  C      -4.95349235075874     -2.02152762142628     -0.44666041700891
  C      -4.07696037905771     -2.04196761643902      0.64584100986865
  C      -4.44066744802358     -2.68287087995367      1.83712453650865
  C      -5.68283001695088     -3.29964109952964      1.93315227628033
  C      -2.76332526524470     -1.39287047398246      0.53776713730554
  O      -2.39078119001875     -0.82832032243513     -0.53395333210198
  O      -1.95535606150537     -1.39171305573536      1.53131427901992
  H      -7.53352387551902     -3.76145164239197      0.92330561070056
  H      -6.88429719186217     -2.62755094994436     -1.19095988298961
  H      -4.64147457549664     -1.52411203559605     -1.36798659814232
  H      -3.73485788441357     -2.69307238673111      2.67094979184858
  H      -5.97265525365697     -3.80635194451187      2.85678705518458
  C       0.51059380212110      1.97476642645575     -2.15850737029287
  C       0.71464789202235      1.84078916937971     -3.67292168508932
  C       0.03377212812133      0.51504214280219     -4.02326626346186
  C      -1.01063504252091      0.38299622041243     -2.93989888443927
  O      -0.32229165684276      0.86786396817374     -1.76731589870199
  H      -0.00099831089105      2.91530641135545     -1.88953329964600
  H       1.44602602118630      1.89770306728066     -1.58601779371440
  H       1.78065064902384      1.84436526678115     -3.93900225463797
  H       0.23661205129362      2.67949489792423     -4.20111136159189
  H       0.73863980202747     -0.32712161366500     -3.94087928779818
  H      -0.40171717575173      0.50666804861531     -5.03267825244426
  H      -1.34289430829561     -0.64221625829887     -2.73373742066558
  H      -1.89218103301805      1.02466613995230     -3.12129516625208
  C       0.33417747083613      1.18568812905228      3.08531141002633
  C       1.43520568293615      1.00084878485796      4.10773181695224
  C       2.58113440156825      1.77184938716991      3.46423822114082
  C       2.43298842274605      1.38139490804137      2.00865404680400
  O       1.00503439184864      1.22140260223186      1.80585433321350
  H      -0.20461979736958      2.13981244642961      3.22232984001550
  H      -0.39585961210430      0.35619404312269      3.08899293964637
  H       1.68464552485732     -0.06850243786474      4.19400313239480
  H       1.14985763988577      1.37520692710605      5.10092036764248
  H       3.56891635381868      1.50153142205827      3.86408218492067
  H       2.44625632238728      2.85784892278653      3.59738353346403
  H       2.91983386764462      0.41786393703875      1.79398252838358
  H       2.79141928643389      2.13375629810529      1.29148446781559
  Cl      0.34259212269099     -2.49534730191301     -1.40027601272964
  F       0.91733583760879     -1.54770365301561      1.91746819114466
  N      -1.66733926797427      1.56335024918941      0.77051384309575
  H      -2.30009140955071      1.54433082875109     -0.03159573286789
  H      -1.22242244906231      2.48154061899624      0.79464621815478
  H      -2.25373886831813      1.49353315262787      1.60397905760112
  C       5.70281431761418     -3.72201175133949     -0.03503194962059
  C       5.99022276933463     -2.98573133087240     -1.18599657377335
  C       5.12665835833972     -1.97646200860080     -1.59050762148137
  C       3.97287459532941     -1.69529217262213     -0.84037146714252
  C       3.69820558716801     -2.42474887139631      0.32609805919783
  C       4.56218359493438     -3.44088742171484      0.71771612203221
  C       3.04043086236777     -0.63723363731589     -1.24789882304688
  O       2.21894351169419     -0.12854844568205     -0.48378129738797
  O       3.08989498000323     -0.18013289440866     -2.48213854340521
  H       6.37914869995752     -4.52151312777380      0.27828421597558
  H       6.89242076782152     -3.19643281076371     -1.76460237302771
  H       5.39196875770899     -1.38857541514188     -2.47676376681182
  H       2.79899286769955     -2.20856954841818      0.91039377547634
  H       4.34061154114061     -4.02240266169507      1.61555197050208
  H       3.69201287867658     -0.71457373359121     -3.02160426466095
