45
Coordinates from ORCA job orca
  Cm     -0.09247173110042     -0.10528630891504     -0.07392222123597
  C       2.80827387617651     -1.80475898105658     -0.66375421952747
  C       1.69001054932862     -2.78672944262772     -0.26374988973172
  O       2.00622687016812     -3.89902266878420      0.09996746934362
  O       0.49095047747010     -2.30143313454476     -0.33425543155594
  N       2.31992673988339     -0.45129364391215     -0.92512430992318
  H       3.35188193371292     -2.24509650882252     -1.51850044762884
  H       3.52863216758211     -1.78691826587585      0.16805108086506
  H       2.05054848841305     -0.35050058542398     -1.90572697645009
  H       3.02399631670858      0.26007364395333     -0.73472501096181
  C       0.37337416879076      2.44845875600846      3.18296924006782
  O      -0.01655482369217      1.30710728437550      3.95879077177029
  P      -0.30888302136368     -0.16531881166491      3.39469147509558
  O       0.93500619679122     -0.39209079150461      2.26635638109592
  C       2.11498642509672     -1.07287391642859      2.68558842440241
  O      -1.32355532216231      0.11339435434559      2.08273886387666
  C      -2.63798768642405      0.64993800923306      2.31500661614312
  H       0.44382569774683      3.28971271779434      3.88401351751314
  H      -0.35926295401320      2.67491738573782      2.38898615693289
  H       1.35993977656883      2.26958376684386      2.72825110986713
  H       2.98298667221680     -0.53337603784281      2.27994439779258
  H       2.10725950707041     -2.11038961905724      2.31643403274298
  H       2.19284244090852     -1.07849519696448      3.78508393570631
  H      -2.65635593794696      1.67858871482631      1.92539652463634
  H      -2.86609127151041      0.62588243139591      3.39317611105881
  H      -3.36052974550193      0.02664586150257      1.77195519660599
  O      -1.87345057650555      1.14097181838216     -0.68823513458058
  S      -1.16704387403173      2.58914727964487     -0.56833188416492
  O      -1.57819696272171      3.16239688721411      0.74443164846278
  O       0.36523559894098      2.06149604414405     -0.38256905212195
  C       2.80010653544967      3.28018735768689      0.40163724213028
  O       3.28233954554956      2.25544880351813      0.38655252537962
  C      -0.75449795515280     -1.52201998509571     -3.14125062678941
  C      -2.15207652339653     -1.00692441694477     -3.46421493454628
  C      -1.92924326368459      0.48697419307738     -3.77649805087169
  C      -0.44938281179748      0.70885904836327     -3.46209850309536
  O      -0.07605012834913     -0.37987991697447     -2.61003199288756
  H      -0.22173237380129     -1.85156041676494     -4.05326135562225
  H      -0.69508907890898     -2.32349136394673     -2.39091047748231
  H      -2.81157779351939     -1.11869094619387     -2.58984925074644
  H      -2.60643723758302     -1.56219508190384     -4.29793301247369
  H      -2.54656967138967      1.11168593488754     -3.11747564253293
  H      -2.15493542667810      0.73947463435927     -4.82310135378866
  H      -0.22617786316340      1.64427280251164     -2.93059587158896
  H       0.17520404982474      0.65522831144368     -4.37330707118138
