51
Coordinates from ORCA job orca
  Cm      0.28183378230112      0.62716359493009     -0.37904350551380
  N       0.68437394354527     -1.76349754395636     -1.08336490482892
  C       0.93357470547302     -2.71169558908601     -0.17088642530443
  C       1.06319392692740     -4.05686332019692     -0.49327289662185
  C       0.91743021385231     -4.42507436535739     -1.82868008746417
  C       0.66180167898059     -3.44288052968058     -2.78146473803988
  C       0.55499819623520     -2.10916568950738     -2.38189848746189
  C       0.31504726580014     -1.00093663759063     -3.33723073707172
  C       0.22913786187406     -1.19250482999415     -4.71588069021853
  C       0.03652865975777     -0.09160861860225     -5.54862319545225
  C      -0.05757005864454      1.17925219409993     -4.98933023535129
  C       0.03323795705799      1.29490155220199     -3.60696067783739
  N       0.20410069860134      0.23510171754581     -2.80393517259606
  H       1.03445056171066     -2.37685396832988      0.86848507444916
  H       1.27199294173976     -4.79494653339383      0.28406346712258
  H       1.00461476422961     -5.47210107683695     -2.13082236109785
  H       0.54916980654145     -3.72563573508388     -3.82864021226474
  H       0.32021932021490     -2.18784543183674     -5.15193504858875
  H      -0.02924092306184     -0.23000101665967     -6.63108417195932
  H      -0.19130941658670      2.06942552124468     -5.60750090484118
  H      -0.01578078945673      2.27516041918909     -3.11849255338584
  O       2.58588654901678      0.49626339983364      0.45967639994980
  H       3.30086833085902     -0.15305615681742      0.52051898426460
  H       2.99197429074585      1.37830719733116      0.51614958972443
  C       0.06254985857586      0.44765970794922      2.95611792126303
  C      -0.91795870637147      0.05060635122700      4.03961353815676
  C      -1.39099668857050     -1.31997747789601      3.56780436202765
  C      -1.52064139408989     -1.11356591847968      2.07410975437889
  O      -0.45384224431092     -0.18261597013619      1.73860047181875
  H       1.07330728838345      0.04757472577400      3.13644186838158
  H       0.12879145572417      1.53353984815969      2.77877726111235
  H      -1.75992080570870      0.76045233351159      4.08607052664218
  H      -0.44634452575548      0.03052627978135      5.03229701128415
  H      -2.33867399536535     -1.63595940791844      4.02666421994697
  H      -0.63753897632840     -2.09351622359830      3.78954512008169
  H      -2.48209429870699     -0.64535932429882      1.80283325385215
  H      -1.38443478017324     -2.02542106462526      1.47236107456624
  C      -2.66650135283540      3.07422619832897     -1.75134808341074
  P      -2.46974660402901      1.75085860241602     -0.50729045812794
  C      -2.81505985640206      2.59506091312493      1.07819283522885
  C      -3.92983417480181      0.68302820381370     -0.78436288524071
  H      -3.63867153391250      3.57649795161361     -1.62174916140422
  H      -2.62494833916470      2.64976230190274     -2.76632054177006
  H      -1.85977946152473      3.81434876969427     -1.63539525372805
  H      -2.80897391239883      1.87149999727976      1.90834666849170
  H      -3.79895644664815      3.09039189284192      1.05010975845342
  H      -2.03893153868279      3.35434766410712      1.26359455135917
  H      -4.85563572183903      1.27935948507078     -0.74769462948754
  H      -3.99271153498277     -0.10664665131572     -0.01991805330656
  H      -3.86080797604819      0.20223770437654     -1.77251301081323
  Br      1.02552199825309      3.21547455384890     -0.36233462936716
