56
Coordinates from ORCA job orca
  Bk     -0.98308618718147      0.33349491665203      0.70909452303466
  C      -0.77793190863590      6.92225931621246      3.03581055142210
  C      -0.31313145828108      6.63476453664949      1.75118000645880
  C      -0.33992385365654      5.32642599964451      1.28082140773532
  C      -0.83375577987607      4.30373901608123      2.09948412784550
  C      -1.29800764047555      4.59394123551625      3.38792046522967
  C      -1.26943163136234      5.90371568167639      3.85414228711590
  C      -0.87029351509821      2.91510689032028      1.59717982729178
  O      -1.32657823064630      1.98087976418655      2.33772400776342
  O      -0.46163384933065      2.64020255790708      0.42917109994629
  H      -0.75630687120885      7.95156924003198      3.40372753096629
  H       0.07151267559144      7.43742276318399      1.11717075989674
  H       0.01917615184188      5.07343020076993      0.28052135135821
  H      -1.67577065149983      3.77931769522240      4.00976574977306
  H      -1.63052687781604      6.13562912716279      4.85918172960194
  N      -2.91523161249821      1.13577933903711     -0.72455831676265
  H      -2.93936748789498      0.56487839988115     -1.57173623574357
  H      -2.75218039850422      2.10257148858201     -1.01354529906862
  H      -3.85194028432664      1.09525501926900     -0.32011250041949
  C      -1.77387872574212     -1.86840134343798     -0.28083275442150
  N      -1.69658529459207     -2.86829411738174     -0.88342706421754
  C      -0.98444080196134     -0.76775404705984     -6.27005540703215
  C      -1.43811512917373     -1.35383149183077     -5.08743787041296
  C      -0.92494493369206     -0.94324699901095     -3.86118652871156
  C       0.06694852433625      0.04780432427676     -3.82695836610051
  C       0.52373349457218      0.63405196817562     -5.01695692926869
  C      -0.00827613549213      0.22941486906352     -6.23597187331392
  C       0.60823764572329      0.44906560368882     -2.51487576188284
  O      -0.02206907465183      0.33023006882663     -1.47666913135784
  O       1.83583645337097      0.93215687702095     -2.45841879265253
  H      -1.39553196505742     -1.08962009248054     -7.23040383024365
  H      -2.19483446595226     -2.14138611049141     -5.11996889616741
  H      -1.26203402715277     -1.41143504511414     -2.92982268302630
  H       1.26414809031558      1.44192209105369     -5.00299190968926
  H       0.33312922819749      0.69686457548936     -7.16245405335317
  H       2.25335165348221      0.90599558581019     -3.33207467566452
  C       3.15469578776821     -2.13312732772849      1.90179777725458
  P       1.56763602633826     -2.22230025497576      1.06266978449933
  O       0.76391923996378     -0.93427810224686      1.35838923201126
  C       0.70065452718121     -3.68759805696944      1.63032247634633
  C       1.86650605123616     -2.41791242210413     -0.69898592024451
  H       2.98395093426989     -2.03292975488560      2.98419066252878
  H       3.69974220143629     -1.24520936116696      1.54774892447781
  H       3.75463556750161     -3.03485414482195      1.70773482210595
  H       0.46850378912452     -3.58345326080927      2.70091034572039
  H       1.32121573428870     -4.58375810142266      1.47691090389430
  H      -0.23112954715204     -3.78015779732526      1.04918855636903
  H       2.36983636574512     -1.51568431302237     -1.07913635338678
  H       0.89032369480202     -2.54878723659440     -1.19389410340120
  H       2.49696126032779     -3.30009551081239     -0.88846592013973
  C      -3.04664156203535     -0.33364959401798      3.55102654702723
  O      -2.58236038882327     -0.63766944886586      2.24111862155429
  H      -2.64457091465721     -1.04812767650247      4.28650477523504
  H      -4.14698248770237     -0.34675962421753      3.58685279950018
  H      -2.68518761555574      0.67543074371580      3.78462907290353
  H      -2.88137378972807     -1.50519865981146      1.93395044981529
