52
Coordinates from ORCA job orca
  Am     -0.81647998694609     -0.30335829182267     -0.57041561370545
  C       1.14346759293598     -3.06304007264011     -0.84469886953806
  C       1.94001830861024     -1.93154794541024     -0.18176731204447
  O       3.05782730811022     -2.12457313974190      0.23737529804087
  O       1.31069531845178     -0.79189604944927     -0.17409902292674
  N      -0.29382307806131     -2.79758942978880     -0.82751270112215
  H       1.42276406435434     -4.02052087582302     -0.37623221012377
  H       1.48937413633154     -3.10820827253284     -1.89069069162658
  H      -0.75474248219774     -3.21727050526689     -0.01833167826469
  H      -0.76679723705626     -3.15595277156216     -1.65631661551224
  Br     -2.81620988876789     -1.40292773997777      1.08243566899875
  C      -0.20116363929577      0.81383173937317     -7.48456648926061
  C      -0.91141530284746     -0.29584856827330     -7.02359173769200
  C      -1.08093849644564     -0.49327964746176     -5.65637810224564
  C      -0.54102452055126      0.42336310010594     -4.74878983422042
  C       0.16826126717714      1.53622913028049     -5.21237673106467
  C       0.33836639796715      1.72940019348141     -6.57956430434273
  C      -0.71054904679436      0.21747591079164     -3.28671587561507
  O      -0.25881183316794      1.07470694028440     -2.47704705235753
  O      -1.29768805329184     -0.82524407832775     -2.85888020289660
  H      -0.06591712511919      0.96589589796868     -8.55907516620481
  H      -1.33288759716773     -1.00963044604378     -7.73617250647754
  H      -1.63115099376050     -1.35354768933526     -5.26772093000519
  H       0.58042613553202      2.23355588783845     -4.47928313819841
  H       0.89549779503480      2.59628053166520     -6.94469682641039
  C      -1.77174960568091      1.65849390307504      3.31498116556379
  O      -0.40054257103169      1.31580565270690      3.34938268746641
  P       0.29725192180115      0.51094007429631      2.10331271835165
  O       1.55542731987952      1.47189934167038      1.76909950022737
  C       2.92068757977779      1.07633607626277      1.86890158490386
  O       1.07815021201006     -0.67649869537769      2.90129243185506
  C       0.32550051960455     -1.69064161502048      3.53599868589457
  H      -2.15052061139209      1.63302783593740      4.34757948021521
  H      -2.35816117236691      0.94684555911539      2.70765942498791
  H      -1.91073805131464      2.67968012825522      2.91800689821688
  H       3.51144450775236      1.89682824961121      1.43837273815283
  H       3.10571643515912      0.14762802384627      1.30634915977533
  H       3.20459756960349      0.93487823360654      2.92269664126249
  H       0.99259273402261     -2.55153883123624      3.68360202112351
  H      -0.54283402217269     -2.00199891914427      2.92645222787529
  H      -0.04267687491535     -1.34510606204536      4.51667135060466
  C      -2.65609802069796      4.64492397379910      0.27899586807575
  C      -3.52594596435029      3.55763038896637      0.24588115639130
  C      -2.99078569247952      2.28421533562714      0.07911958106389
  N      -1.67874862407103      2.07204988911125     -0.06098936394833
  C      -0.84154421812222      3.11378567999627     -0.03274335363611
  C      -1.28815605604093      4.41947997121896      0.14146754088944
  H      -3.04057636983379      5.65967964654729      0.41348394838224
  H      -4.60512771546967      3.68668353457709      0.35222596792164
  H      -3.63004593217394      1.39268808358858      0.07773144097423
  H       0.22601093434154      2.88926382576036     -0.13458270927449
  H      -0.56962727487273      5.24121690691622      0.16846385149990
