39
Coordinates from ORCA job orca
  Pa     -0.02222491030697     -0.67711104384710      0.09562291697122
  C      -0.51829469034011      2.09180878720803      1.99815122520625
  O      -0.26118291343235      0.95208898889355      1.18973607878348
  H       0.24346037250332      2.15083286421182      2.78828399358775
  H      -1.51510392856317      1.99310125931589      2.45066949863640
  H      -0.48211526558444      2.99259805652636      1.36892294336387
  C      -5.22520577424989     -1.45201585933674     -0.17849307066660
  O      -3.90889059473858     -2.00247285824116     -0.39700119750679
  P      -2.67215086188656     -1.79775070573505      0.59124713008252
  O      -1.49000397342049     -2.51784360128690     -0.40529207753322
  C      -1.64366813809756     -3.66579181394562     -1.28054897105630
  O      -2.87408058670261     -2.73256450405078      1.84536512384236
  C      -3.50553237207795     -4.02871834333815      1.91886580475313
  H      -5.84048275732266     -1.80204679753287     -1.01542727719836
  H      -5.18581172618096     -0.35311769472962     -0.18263896449200
  H      -5.64592532513151     -1.81839220626604      0.76921421804661
  H      -0.83396590718185     -3.62694059302472     -2.02047576712242
  H      -2.61734269728073     -3.59527542880480     -1.78293966717091
  H      -1.56515685602070     -4.58302626653648     -0.68124439547949
  H      -4.13267832993798     -4.02950724744776      2.81858303430029
  H      -2.71806244348232     -4.78810766806020      2.01805953471349
  H      -4.11985583047102     -4.21634379254848      1.02656574459823
  S      -1.68371252655316      1.44894598334004     -3.99150314538581
  C      -1.14365643893623      0.73672732807139     -2.73118190016023
  N      -0.71108124803039      0.16530963797233     -1.73268371873050
  C       2.54503435190466      0.81197293423886     -1.44054899864487
  C       4.02939827497492      0.94785961509133     -1.19913544931136
  C       4.47038836973925     -0.50066537282471     -1.02296079466447
  C       3.36817953173387     -1.08611032882732     -0.17154912976907
  O       2.15225832614062     -0.34956635882562     -0.60698142303065
  H       2.29887596396615      0.55567523562768     -2.48199005314345
  H       1.94380785570406      1.67414763784935     -1.11420024002356
  H       4.22571628419221      1.53687158299811     -0.28894855448738
  H       4.52838586397117      1.45202175328021     -2.03928178565555
  H       5.44873182371081     -0.59493540216736     -0.53043250574005
  H       4.53037030436994     -1.01627115756360     -1.99447371931291
  H       3.49591145473885     -0.88133079660056      0.90202433659881
  H       3.17961778324405     -2.15715173981553     -0.32859999221886
  F       0.72134953503642     -1.95690408326748      1.46812121502042
