50
Coordinates from ORCA job orca
  Md      0.31667931309170      0.10216687933691      1.11962386391173
  C      -3.62181801873892      2.21099668024171     -1.82649144894493
  C      -2.37029872389390      2.81569626723135     -1.72253116752428
  C      -1.40252556415887      2.22014486771575     -0.91519534535508
  N      -1.63541264950109      1.08627194554928     -0.24446259715009
  C      -2.83486818663142      0.49807501960640     -0.33243691421654
  C      -3.85777373855918      1.03721572822936     -1.11658978549107
  H      -4.40424817529468      2.65300464133006     -2.45341828020991
  H      -2.13829599004796      3.74217837375302     -2.25499507597176
  H      -0.40010241843330      2.64293924197498     -0.75526710299739
  H      -2.97286943573032     -0.44158106663374      0.24216554400589
  H      -4.82339486344033      0.52610576731310     -1.16157937892196
  C       0.43885075881485     -6.21236803429952      1.05203717660240
  C      -0.73926532951673     -5.73582138746959      0.50015649059619
  C      -1.41546896654125     -4.53645017031029      0.79498581627357
  C      -1.08905006323652     -3.53921269257177      1.71787078543731
  C       0.00533730453564     -3.60257671785904      2.66002910576723
  C       1.23399485138002     -5.47435512475710      2.04270295791866
  C      -1.82429104498617     -2.24624387696901      1.65365450415983
  O      -2.90506879849120     -2.17416134617268      1.03801242771674
  O      -1.24670684006374     -1.24432758550361      2.22476068018089
  H       0.88268451847483     -7.13840982690857      0.67190652263679
  H      -1.19753685522508     -6.35980858364609     -0.27949179101655
  H      -2.30632677755755     -4.29416766168923      0.20578443441650
  H      -0.11589107605729     -2.93875330467266      3.52532514045310
  H       1.94568409856002     -6.14825232416044      2.55060367309899
  O       0.92502246355788      1.56819143204021      2.81827540473756
  S       1.36265215045653      2.86753630608873      2.06489702871131
  O       2.83565097372824      3.08169201961500      2.26013853227427
  O       1.16768449205470      2.34849119651698      0.52372078277889
  C       4.72833931737986      1.48683500670030     -2.40985121910590
  O       3.99418388926061      0.69329044094884     -1.55457683506838
  P       2.76876681808069      1.55088072132032     -0.59459604938735
  O       2.88318358210402      0.37252691408453      0.59933179470762
  C       4.01214856870616      0.33415343899142      1.43974133193317
  O       1.45143624022366      0.78984115469956     -1.33462914698575
  C       1.60668195706657     -0.38730488448279     -2.09528270234338
  H       5.81730753137814      1.30566335330186     -2.29105750264304
  H       4.55146073670285      2.57136005036187     -2.22364176977388
  H       4.48350292702635      1.30037919683189     -3.47950207979897
  H       4.03411583507716      1.23615498980551      2.07644448969768
  H       4.93360424206638      0.24997022419107      0.83432210699065
  H       3.91587790654575     -0.56966644795940      2.06256941429483
  H       0.59397357247524     -0.68559310617523     -2.41367081983196
  H       2.03824462175405     -1.20313801824127     -1.49370359960580
  H       2.23540487390924     -0.22024210408712     -2.98761602853995
  O       1.12443855116713     -2.18549707902349      0.53177068794843
  S       1.69741601603166     -2.85836229986573      1.77207917285519
  O       2.11407505169898     -4.43428600758888      1.46570943246210
  O       0.50301035279636     -4.83348220673257      3.05736733831640
