58
Coordinates from ORCA job orca
  Cm     -0.08760648323788      0.23007535741691      0.44515541766808
  N      -1.83241728870296     -1.46440620656029     -1.06866121607063
  O      -2.51409856118282     -2.16218047734040     -1.75010385188842
  O      -0.57196795313541     -1.66567650217492     -0.94581958245204
  O      -2.27890920510916     -0.48335117802180     -0.41183787750319
  N      -0.47167624935206      1.10283163220262     -1.93705891626197
  C       0.08346927731461      0.48286431498808     -2.97864809059450
  C      -0.10667022954779      0.89794345674187     -4.29254517275684
  C      -0.91287711765739      2.00879885784396     -4.51744653381215
  C      -1.49359625672930      2.65481164851646     -3.43132445748528
  C      -1.25595027919495      2.17367448789485     -2.14021039585924
  C      -1.83417633730781      2.81828579545865     -0.93579352713738
  C      -2.78437862328714      3.83900144323635     -1.01908597870847
  C      -3.27094334294851      4.41724628040324      0.14900596955279
  C      -2.79212872146063      3.97216584276965      1.37648135208223
  C      -1.85114701826135      2.94778682155435      1.37993095193706
  N      -1.39394691628871      2.38298435285508      0.25900778904331
  H       0.69290925689441     -0.39829552885240     -2.75198890869158
  H       0.36441796494993      0.35555889403706     -5.11448439488307
  H      -1.09154996065683      2.37301413342604     -5.53219958328995
  H      -2.12046386344604      3.53150392651549     -3.59575115402036
  H      -3.15749392447281      4.17699137565682     -1.98608983816438
  H      -4.01934228845015      5.21193391051469      0.09612155184594
  H      -3.13671077354648      4.40283418599673      2.31846207307139
  H      -1.42854518804746      2.56865857414879      2.31879194430623
  C      -1.52402780226298     -2.75657978184651      1.69763745832423
  C      -1.52767617251302     -3.49634027576541      3.02904485506828
  C      -1.69419056670540     -2.37612753951600      4.07425941459067
  C      -1.73458977355873     -1.09841338227147      3.24343429132814
  O      -1.06255177972503     -1.43678902137142      2.01934190515140
  H      -2.54155089777858     -2.67828116488087      1.27186422138287
  H      -0.85680386829421     -3.17685929342972      0.93406974254622
  H      -0.57817765564441     -4.03179796124770      3.17791458088148
  H      -2.33486985633194     -4.24160175266834      3.06603967934476
  H      -0.84224847147807     -2.35604817428236      4.76916896017332
  H      -2.60830165427223     -2.48727224206965      4.67462736967155
  H      -1.19942428430184     -0.25040175112418      3.69244794131742
  H      -2.77122630120139     -0.80143619256149      2.99699581848133
  C       3.62396138958474      3.63501011717821      0.02756607612482
  C       2.59870856511588      2.63976481985529     -0.18580463793277
  N       1.77469520425404      1.83627545991864     -0.28518655668058
  H       4.57665287424122      3.30281185729814     -0.41055527814383
  H       3.75177984986511      3.77201121274617      1.11346977877982
  H       3.33063065217620      4.59180656701482     -0.42845192307334
  I       1.21261855074166      1.16927310831775      3.04294820997865
  C       2.63528411091151     -2.43233393478732     -1.19773621364879
  P       2.36161694443215     -1.46289117692495      0.33251489517784
  C       3.99198125645099     -0.70510026008548      0.66428419474068
  C       2.23632379594881     -2.75128738734693      1.62814685829697
  H       3.44749328766634     -3.16686996654051     -1.07691088235518
  H       2.89664747313534     -1.75040654660918     -2.02263269361130
  H       1.70225210217440     -2.95291569401505     -1.46394761386980
  H       4.78267574890586     -1.46970281976495      0.72610104240595
  H       3.93531963835415     -0.15193685294714      1.61498092462252
  H       4.23929373008214      0.00248960218480     -0.14196452102124
  H       3.13588137048394     -3.38737230827581      1.64510715439526
  H       1.35678208535348     -3.38385602563711      1.43452887615045
  H       2.11104053705465     -2.26197663777221      2.60678850147459
