45
Coordinates from ORCA job orca
  Cm      1.13905071228953     -0.70402296607795      0.65561713147690
  O      -0.95168285418917     -0.03006413877933      1.17529312017794
  H      -1.27994945979973     -0.58015435873168      1.89727423095628
  N       1.13419379978932     -3.31054143252328      2.17521009224427
  O       0.29687000299601     -2.42065628731108      2.45526672448598
  O       2.03231662728982     -3.01565930663113      1.34800744762133
  O       1.08215257959544     -4.41526598973821      2.68393633434675
  C       0.81241674443672      1.15174021852213      3.94142590945155
  C       2.04955620007655      1.45092344596619      3.09475468053277
  O       2.22816768169974      0.55596093915248      2.08794013040240
  H       0.65003706656824      1.90985643984194      4.73200249396485
  H       0.91105513110477      0.16010460197237      4.41692043808198
  H      -0.07099710141771      1.10950800568149      3.28111523384400
  H       2.93627172220781      1.49259909644657      3.78342623633978
  H       1.94717990968874      2.50108036351147      2.71452677654601
  C      -1.48492301180457     -2.24728556700874     -1.03501555410203
  C      -1.28390220285888     -1.90557899381730     -2.49771768483089
  C      -0.25688592870179     -2.94734093782935     -2.94543790281903
  C       0.51579054998951     -3.25745000963305     -1.65588469404978
  O      -0.18647350550863     -2.61014934260351     -0.59094749905222
  H      -2.17936481488960     -3.10771022867657     -0.90345665394233
  H      -1.80903303581094     -1.40531162829508     -0.40187113234938
  H      -0.81506409353321     -0.91094311127188     -2.56773618769456
  H      -2.22116089923373     -1.91531698511338     -3.07755313003229
  H       0.42000527535920     -2.50760861359943     -3.69417290479181
  H      -0.74480144224033     -3.85528705478827     -3.34598264945053
  H       1.53115640491099     -2.82827403104812     -1.67253279468396
  H       0.56996363676161     -4.34252666952893     -1.44263257725814
  C      -3.14512072150737      1.84368180734789      0.12453855109781
  P      -3.37569168204348      1.30029330478841     -1.61695368701264
  C      -4.57180503622816      2.61102332223529     -2.19387896411914
  C      -1.83513037408022      1.95915374409297     -2.37537352843713
  H      -2.88226774176518      2.91590656193048      0.18942730371749
  H      -2.32982456416864      1.22675488583527      0.57666265091192
  H      -4.07655467204020      1.66842252429177      0.69087276605464
  H      -4.21364415001811      3.62999971816349     -1.95592362194962
  H      -5.55415668170770      2.46286246178387     -1.71370693268731
  H      -4.71477957246590      2.53564098955731     -3.28522836220360
  H      -1.72862450904945      3.04425935198910     -2.18945892510072
  H      -1.85290532931280      1.78184204411893     -3.46395227968634
  H      -0.94128565874756      1.43835433732848     -1.96556262667409
  O       0.75563507468820      0.56650753839422     -1.28272489216189
  S       2.04536973145010      0.18796489607157     -2.15601730011861
  O       2.64629221338068     -0.91518302832866     -1.18572874976331
  O       1.56164797884018     -0.49380991768872     -3.40826701728324
