64
Coordinates from ORCA job orca
  Es     -0.00498782546405     -0.02400668201275      0.02326413191456
  N      -0.27139847689125     -2.40623878424151     -0.96142651323938
  C      -1.63874380843701     -2.80173810085034     -1.33566314493321
  C      -2.63382521035937     -2.23865299764224     -0.34170118754943
  N      -2.46331145508008     -0.79505973177867     -0.14381660655846
  C      -3.19688323343045      0.06055812461853     -1.09539575550355
  C      -2.44291933263241      0.29575340885877     -2.39018164002631
  N      -1.08595411899712      0.78338423592211     -2.10839159437975
  H       0.35264957034701     -2.59757900089586     -1.74695500983731
  H       0.06332091766970     -3.01976403925486     -0.21348224937946
  H      -1.75678495450439     -3.89745745464434     -1.39264554581932
  H      -1.83930694896366     -2.41762995054594     -2.34555162178944
  H      -2.49001359604427     -2.73742127154298      0.63315629901204
  H      -3.66155871505745     -2.48953663017258     -0.66271877448459
  H      -2.81757125654228     -0.55796355346504      0.78225833968614
  H      -3.35511042035738      1.03240748828697     -0.60221155036395
  H      -4.19607349362352     -0.35754560170582     -1.31633783457687
  H      -3.01773760623450      1.00678482038696     -3.00879294178847
  H      -2.37086960752561     -0.62801121632332     -2.98264864433806
  H      -1.11695197578263      1.80200359619028     -1.95595371492143
  H      -0.50212373278490      0.67687380182381     -2.93984826282029
  N      -0.37516516809302     -1.11547659882485      2.28677023773193
  C       0.87958264565790     -1.42145665020071      2.99313706535552
  C       1.82470947810725     -2.15187620522296      2.06535287421964
  N       2.06332148718888     -1.33838420515440      0.86470000128891
  H      -0.88158873714092     -0.37348050964609      2.77680504719862
  H      -0.98882820458587     -1.93270316670057      2.31522832045647
  H       0.71183303610029     -2.01426865397946      3.90758345011701
  H       1.33466673425644     -0.46722793230030      3.30246720355701
  H       1.38241877170137     -3.11734431084777      1.75728466853731
  H       2.75728043240854     -2.39765088470171      2.60174455377706
  H       2.66873404049638     -1.84875056437360      0.22058665062284
  H       2.60628176766369     -0.51056889666943      1.13376911428412
  N       1.17516886193253      2.40182765087918      0.95908758025643
  O       1.54344997506488      3.44235523774260      1.39203102504144
  O       0.55160324260125      2.29903694840625     -0.14995350759771
  O       1.34676246544536      1.29558092293683      1.56218179798646
  C      -1.83746091861750      4.38094823441903      5.39116137849106
  C      -2.89293103450765      4.67561328911929      4.52579351330425
  C      -2.96475848136075      4.05161291741559      3.28671855891099
  C      -1.98267874086316      3.11673695673837      2.91627756457677
  C      -0.93139687739945      2.81431550697447      3.79648241165890
  C      -0.85658955865627      3.45611843762718      5.02583643451724
  C      -2.03055072293597      2.43771132884652      1.61917547286809
  O      -1.49779115268722      1.34683986013569      1.40530677166405
  O      -2.67877155746840      3.01248711467530      0.62212992224003
  H      -1.77877284708424      4.88079679344984      6.36141582890135
  H      -3.66441888757073      5.38954451622881      4.82307900533619
  H      -3.82031033062119      4.26875581316974      2.63698125621922
  H      -0.15494689062155      2.10838394603513      3.48806781584942
  H      -0.02733576757147      3.24378368664900      5.70451384538394
  H      -2.98036169530039      3.90216286152140      0.86818040559676
  C      -1.12777227249194      4.02268105160354     -1.92322149000638
  O      -1.12104172460282      5.07743243028081     -1.53188554145627
  C       3.25968626282178      1.40122313332097     -3.27606493518179
  C       2.27605067636568      1.29598641020741     -2.28828396524565
  N       1.90625113120640      0.10500257385956     -1.79720849616806
  C       2.53470788761277     -0.96367709973339     -2.30501854698758
  C       3.51120532329942     -0.84627042090660     -3.29234499018118
  N       3.87082534139553      0.33666403775529     -3.77677201241427
  H       3.55166378029047      2.38455410044190     -3.66115230103683
  H       1.78718148285715      2.18320357640345     -1.87635127403164
  H       2.27043693981181     -1.95337331855595     -1.91879395394705
  H       4.01010508659049     -1.73541038003669     -3.69405493999821
