40
Coordinates from ORCA job orca
  Pu      0.05527419487811      0.09322571863043     -0.80121768233691
  C       1.04492645474129     -2.13848865753387      2.63710865458072
  C       0.15279900045623     -0.94035880461649      2.41698256638976
  O      -0.00836198948901     -0.65869962860016      1.04305787866268
  H       1.12701837900974     -2.35178612300858      3.71365269764489
  H       2.05821172486212     -1.94159789895373      2.25501166128275
  H       0.63821928753511     -3.03548038068323      2.14403029431519
  H       0.57821656028355     -0.04182466800008      2.89589381862214
  H      -0.85159921332845     -1.11130973970596      2.84289698172790
  C       4.47984851857484      0.85505552233337     -2.00182877945153
  O       3.73487480769619      1.11975132184798     -0.81763784549021
  P       2.80050164131690      0.06426974764613     -0.04722927796047
  O       3.69975162779535     -1.27976346232431     -0.07975770554426
  C       3.22513659222153     -2.56848762982786     -0.43790763996456
  O       2.89955246709385      0.60266275984097      1.45815840388355
  C       4.14283444853191      0.97117310641222      2.06381761547505
  H       5.24905024050782      1.63508911136984     -2.06986279174065
  H       3.82976812515430      0.90158188692614     -2.88757317942885
  H       4.95999112229987     -0.13312344069008     -1.94508141024656
  H       3.78376612800775     -3.30302127647923      0.15774584910851
  H       3.39238514349056     -2.74834760365905     -1.50955475834870
  H       2.15000525936042     -2.68398169760122     -0.21656797943433
  H       4.56505936272332      1.84984967803219      1.55639867525306
  H       4.85485013000757      0.13301461731471      2.01870404196003
  H       3.92199684260869      1.21482312169166      3.11010172454506
  C      -3.07788445190030      2.65800853755576     -0.12732600222975
  C      -2.96719854660733      1.19726663769546      0.21780533293014
  O      -2.31181924606098      0.44666207433248     -0.83651447437922
  H      -3.57019336695420      3.19678661520446      0.69636240963087
  H      -3.69008784104006      2.81365010237057     -1.03065517485723
  H      -2.08447826233729      3.10504410132948     -0.28493172685580
  H      -3.94696725756100      0.72824845484494      0.40126856003891
  H      -2.34606527860887      1.02978738884993      1.11144134344429
  H      -2.79653216900320      0.54614817407423     -1.66825404716417
  S      -0.70758139885261     -0.08047773922595     -3.67684399209298
  C       0.78211908816893     -0.54514030533020     -3.21090682492000
  N       1.74273235717577     -0.81706161125450     -2.56677552883790
  F       0.36394445003980      2.04929705560274     -0.41525718261492
  C      -0.91237722252772     -2.38167774327768     -1.38470537962150
  O      -1.32908771027071     -3.40036732313345     -1.60564912597504
