28
Coordinates from ORCA job orca
  Es     -0.54717470313739     -0.43451043132355     -0.03731007927955
  C       2.22249086826651     -0.56740471631446      1.80730200445834
  C       1.02873065403384     -0.84686633821956      2.73876113828984
  O       1.23731355043255     -1.00992499303320      3.93190412638390
  O      -0.10623095389218     -0.83886262389324      2.14006283084473
  N       1.88943948599009     -0.86853454813082      0.43241782163197
  H       3.11031749709124     -1.09789542470326      2.19988447653376
  H       2.41281315464830      0.51681701647635      1.88186560007142
  H       1.95488681503335     -1.85947635083800      0.19396097841284
  H       2.38424730514732     -0.31992739731244     -0.26615710194286
  I      -0.30474472332265     -3.45324901668683     -0.92653191261476
  Br     -3.23677696888655     -0.05191880383701      0.53660117438597
  C       0.48128415277109      1.80794791805188      0.30137197262895
  N       1.13591935467185      2.76225194104935      0.47357119802489
  C       0.39851957994954      0.44131942833091     -7.03497994227245
  C       1.49783062201712      0.13229097170985     -6.23142710366635
  C       1.34245626735764      0.02262685167504     -4.85113734708467
  C       0.08987653697458      0.22253737717943     -4.26729526430135
  C      -1.00851425069843      0.53154448204060     -5.07249035353650
  C      -0.85502223578755      0.64084784567500     -6.45312574299669
  C      -0.08407509644524      0.08254516974395     -2.77600445619887
  O       0.91623656661623     -0.21934132877667     -2.08493958282822
  O      -1.23076042989061      0.25334669346917     -2.29593186240368
  H       0.51890899243249      0.52357749697950     -8.12027221049492
  H       2.48026553577910     -0.02846217180158     -6.68709480227713
  H       2.17422688324975     -0.22556012042196     -4.18662322613544
  H      -1.97216832226007      0.67288115982899     -4.57562543699180
  H      -1.71809613814201      0.87919991308258     -7.08305689664110
