38
Coordinates from ORCA job orca
  Fm     -0.00630824336855      0.16430353560030      0.05170928316979
  N       1.90995976071386     -1.08309177719742      0.80194640728503
  C       2.81133343719310     -1.57534997879578     -0.06048341953454
  C       3.80700510208628     -2.46652216632871      0.31451367776207
  C       3.86022547307905     -2.86001879015517      1.64968387864242
  C       2.92863374278225     -2.34991226092191      2.55015858620583
  C       1.95512635763289     -1.45624597336223      2.10257983143434
  C       0.92813663168803     -0.87426228297961      2.99963938069980
  C       0.82026460400081     -1.20876728732916      4.34903822009503
  C      -0.18440604490609     -0.62756834882176      5.12039326514232
  C      -1.06229975466690      0.27771928412035      4.53085806144487
  C      -0.89575972417058      0.55978143641546      3.18130234714244
  N       0.07077067527922      0.00628069740274      2.43859214430879
  H       2.73480104051156     -1.24384148311010     -1.10327327163776
  H       4.51918974658861     -2.84230957130067     -0.42296255694263
  H       4.62439318561076     -3.56290419319526      1.99193129861226
  H       2.96894308719994     -2.65455617041067      3.59629815904613
  H       1.50251185388999     -1.92508078031770      4.80756662788431
  H      -0.28179771085539     -0.88775029248407      6.17778212649190
  H      -1.86659496542949      0.75073080155786      5.09800479416042
  H      -1.57676861792837      1.25631416491056      2.67732730850520
  N      -1.75220974196091      1.70116957127958     -0.85006813031827
  C      -1.70186548550945      1.68293700611411     -2.33149442843146
  C      -1.53254149182551      0.26840248585294     -2.84567007371321
  N      -0.25808786820907     -0.32906765810129     -2.37005367090188
  H      -2.61982724498651      1.23674207158606     -0.55266462845590
  H      -1.84427176476150      2.66794727946488     -0.52580314240766
  H      -0.86183258258118      2.31986723545060     -2.65955807780698
  H      -2.61531250282880      2.11939748435585     -2.76817262946645
  H      -1.58502545492229      0.26703104624016     -3.94607398873823
  H      -2.35407504853056     -0.36783195633775     -2.47882243479946
  H       0.50434090982527     -0.01870061900752     -2.98120680043273
  H      -0.31173709738229     -1.34392171694270     -2.50571733940906
  O       1.63459622314978      1.97700110121246      0.02673412761940
  H       1.62008297286314      2.89343837008800     -0.28819746438661
  H       2.46478977774011      1.88867189858332      0.51999617190686
  C      -1.80117611984897     -1.29667590860732      0.08420697687937
  N      -2.86220711716227     -1.76435625452838     -0.04604061705583
