40
Coordinates from ORCA job orca
  Lr     -0.03489245045082      0.51125156004975     -0.05007314457839
  N       1.94144112513318     -0.17602945423316      1.38986710266355
  C       2.23931458761891     -1.60213360885685      1.30717616666112
  C       2.12209901102592     -2.07223114724701     -0.13173581344929
  N       0.78619357600721     -1.76860692803475     -0.63326305971690
  H       2.71670829623666      0.38859748226966      1.03713605173561
  H       1.75921843035162      0.10580864641567      2.35215277414616
  H       1.49165506547712     -2.12988426088347      1.92309497332202
  H       3.23868311645870     -1.86193458222960      1.70236794872672
  H       2.37427950633973     -3.14697780805924     -0.19198269063031
  H       2.85292139968394     -1.53518895881648     -0.76046879777029
  H       0.08514116440100     -2.37726558579745     -0.20577825109541
  H       0.71293660176072     -1.87526755773246     -1.64480575077347
  Br     -1.28698451367607     -0.83526496859904      2.00747812852306
  C      -4.01688875257162     -0.18001103542069     -0.59123463777278
  C      -2.98978717904264     -1.18476202139034     -1.05558900750099
  O      -1.74992196037003     -0.57123909404907     -1.42440383112888
  H      -4.95972561752913     -0.69255739931903     -0.34316916562432
  H      -4.22340416674533      0.56736495888208     -1.37397575110590
  H      -3.66135976341664      0.33765596389582      0.31328985738546
  H      -3.35817243631944     -1.76556995803560     -1.91993567188726
  H      -2.74468071874172     -1.88813103467405     -0.24590791990004
  H      -1.91393285117362     -0.00943542182359     -2.20653779564555
  N       1.81225474506247      1.06825929083282     -2.20202134325872
  O       0.72891575619182      0.50029020167404     -2.39409436362900
  O       2.01190527259237      1.33890900904139     -0.98810885752270
  N      -1.18486071764722      2.31212282714493     -0.87774244159824
  N      -1.83936474631527      2.17741788167423     -1.86734232131403
  N      -2.47554800291166      2.00624454269021     -2.81381752105023
  C       0.56153263515534      4.71425812995131      3.05052461984913
  C      -0.21858382868882      3.65168246053797      3.49787372380758
  C      -0.28737712131645      2.49930831698493      2.72087240088328
  N       0.36974616272289      2.37605096101889      1.56220376133873
  C       1.11457504221857      3.39933719187357      1.12726699286972
  C       1.24257043004910      4.58479319457150      1.84298204431195
  H       0.63449314643755      5.63533476535913      3.63544439551629
  H      -0.77530292643428      3.70785327266474      4.43559229930765
  H      -0.89092590466310      1.63559924183578      3.02339545666866
  H       1.62203711378440      3.25261430007423      0.16798229384580
  H       1.86269147330468      5.39213662575917      1.44818714539017
