41
Coordinates from ORCA job orca
  U      -0.17410688748680      0.57657983513343      0.37833592979376
  C       2.82828563229357     -2.44036459806225      1.65464998784538
  P       3.09786403168117     -1.02475421953246      0.59854262455271
  O       1.67428452427648     -0.46178648085456      0.14225140591244
  C       4.01042686820009     -1.48510466884804     -0.86515818836221
  C       3.95319564245322      0.26474841254387      1.49387213497831
  H       3.79540086276353     -2.82839875031669      2.01306991883015
  H       2.31003054398602     -3.23307458754662      1.09356066912791
  H       2.21605389593055     -2.13853625448636      2.51916085479311
  H       4.99723242217420     -1.88183052499066     -0.57695676678625
  H       4.15073782477777     -0.60234676115114     -1.50783062948247
  H       3.45943883270398     -2.26002896821329     -1.41961104160390
  H       4.95163287323414     -0.09048217194132      1.79627122112206
  H       3.38183415784786      0.53269828987019      2.39670807340857
  H       4.06763944361180      1.15138849467223      0.85061399196784
  C      -3.95451908851540      0.60879255922993      1.73449205065580
  P      -2.71098974164989      1.81744917762843      1.16490726471260
  C      -3.53915117743319      2.78769819079006     -0.13710389390293
  C      -2.47497048356858      2.95994168298394      2.56123894783713
  H      -4.86099923233756      1.13462330730314      2.07618082727154
  H      -3.54769037685344      0.02140410111721      2.57180636768864
  H      -4.23494873798270     -0.07272762369225      0.91641780692323
  H      -4.47470499509509      3.22080064105875      0.25240254025241
  H      -3.77968866175700      2.14661205199711     -0.99922683553587
  H      -2.87818139882359      3.60226808897103     -0.47021443141956
  H      -3.44444134027731      3.39198501314006      2.85799913080657
  H      -1.79153568569398      3.77133812741047      2.26840864036519
  H      -2.04303563315749      2.41749514356878      3.41571904007144
  Br      0.41774589112226      3.07508545200157     -0.22189583942683
  Cl     -0.31531306343581     -0.16190201580868      2.75426931335938
  C      -3.12418521283111     -1.53632992679498     -3.33530493646830
  C      -2.42333698055079     -0.35559938860251     -3.58484780454851
  C      -1.64278212909837      0.18137427198926     -2.57159198139553
  N      -1.54184354540547     -0.40584068678751     -1.36268787837955
  C      -2.21786569573470     -1.54646076274151     -1.12176186951587
  C      -3.02012165475189     -2.14325910474636     -2.08230379107182
  H      -3.74922155063169     -1.98243452943142     -4.11413699240529
  H      -2.48047226740286      0.14664091798300     -4.55318850982781
  H      -1.08110540567570      1.11162232402932     -2.72181836621277
  H      -2.11006148266524     -1.99312340738236     -0.12461599142639
  H      -3.55363101824088     -3.06826065149079     -1.85202299450437
