66
Coordinates from ORCA job orca
  Cf     -0.36420802307527      0.29061774950124      0.29993364759786
  C       4.65278689300468     -3.01289026306919     -3.67231431414247
  C       4.29495139821149     -1.68885531259955     -3.93102564597936
  C       3.38068008326032     -1.04092587705431     -3.10408966461181
  C       2.82103343033989     -1.71351509924739     -2.01307856236611
  C       3.18889744293919     -3.03726635483466     -1.75329238958494
  C       4.09949418357169     -3.68676139906068     -2.58262776406409
  C       1.83295006657853     -1.02098278412876     -1.12158803398275
  O       1.44161809743268      0.13415583841753     -1.43394396390166
  O       1.42612990095273     -1.61705865513281     -0.09117155376012
  H       5.36896981666119     -3.52243827665599     -4.32317026108494
  H       4.73348298468676     -1.16045149967772     -4.78206557774172
  H       3.08235356271681     -0.00430991987154     -3.28114942845276
  H       2.74451962969381     -3.53617102989611     -0.88827455960015
  H       4.38271621589224     -4.72348447607607     -2.38009976091144
  N      -1.31873250864029     -1.59128139347370     -1.29105779213628
  C      -1.39239519485149     -2.90964369050740     -0.69486616336156
  C      -1.81482205870375     -2.79668575480603      0.76003233887300
  N      -0.90401947787073     -1.92825681439931      1.49477804748964
  H      -2.19835962812979     -1.07176019520075     -1.15926232783757
  H      -1.09637716340214     -1.61166919289178     -2.28411809237697
  H      -0.39481793666384     -3.38037909494191     -0.74972463460448
  H      -2.10407058136696     -3.58950539403114     -1.20591366824513
  H      -1.88829779855203     -3.81436255084196      1.19135114957561
  H      -2.82014047264354     -2.34393889985726      0.80809779678745
  H       0.04607435338697     -2.30378074460970      1.48836608629055
  H      -1.19848979820723     -1.80275159285252      2.46099465703498
  N      -1.19613970364278      1.00954960498211      2.67760580364948
  C      -2.49600910794588      1.26744874887305      2.81780788702763
  C      -3.01279400112396      1.91984212406501      3.93614702348756
  C      -2.13108566119005      2.32047136604283      4.93358439260056
  C      -0.77442914819335      2.05623472584644      4.77992009019739
  C      -0.33591944339313      1.39460063253538      3.62730661573272
  C       1.09280351291870      1.05936233749090      3.40367954270622
  C       2.10389294759420      1.52978778961384      4.24892832177261
  C       3.41945462925933      1.14660518360539      4.01496472086790
  C       3.69040148641082      0.29470996665946      2.95091912058349
  C       2.62702627670682     -0.11847742837243      2.15105879535340
  N       1.36762785451034      0.26069794303507      2.36258168103276
  H      -3.10171923934246      0.94508594686181      1.95769625052475
  H      -4.08540209526261      2.11134130530121      4.01107525798120
  H      -2.49148712811193      2.83629108747950      5.82770602841977
  H      -0.07067305905841      2.35610671494321      5.55702569875775
  H       1.87224816196550      2.20039236399824      5.07681469483301
  H       4.22221825654436      1.51064716208645      4.66165582291491
  H       4.70481841366740     -0.04434033135599      2.73080399767332
  H       2.77287032684011     -0.79698631525829      1.30467351146433
  O      -2.56111052962863      0.41041884742356      0.06291145479414
  H      -2.97737774798221      1.12166493494681     -0.43777753936027
  F       0.19373998002973      2.31300170753456      0.53826421827465
  C       1.02212998405628      3.24571782815154     -2.33085161357177
  O       0.01157347021306      2.59458782115060     -3.09591051534305
  P      -0.94983867197212      1.47413760584088     -2.38682060099366
  O      -2.43861450829911      2.13130926606760     -2.52305408893128
  C      -2.90831560035959      2.67014868125874     -3.74325047947394
  O      -1.07278365555747      0.43152096736628     -3.66982614481012
  C       0.06076488400148      0.00551356131832     -4.39241223257645
  H       2.00821308587040      2.83986795826584     -2.60800230560556
  H       0.86546707034089      3.10270101380427     -1.24811151686274
  H       0.99133674349647      4.31864312939165     -2.57452192521655
  H      -3.85304665936283      3.19019015844134     -3.53144306019723
  H      -3.08493416830077      1.87150978857915     -4.48120809501455
  H      -2.18270113387281      3.38831007733749     -4.15894912885441
  H      -0.29473391459987     -0.43472604630809     -5.33636936195775
  H       0.63849158731271     -0.75140531190562     -3.83477204365070
  H       0.72760908823948      0.85276976070121     -4.62016984313222
