34
Coordinates from ORCA job orca
  Es      0.09088601588199     -0.48086332199075      0.01164794609581
  C      -1.69916034616271      6.08057431887068     -0.26394056818671
  C      -2.00271183258812      5.33265286923340      0.87898698402880
  C      -1.62695658444375      4.00051956478498      0.95013948090443
  C      -0.93920339303597      3.41771681176365     -0.13338110603835
  C      -0.63160139708792      4.17620198638169     -1.28129349179239
  C      -1.01613120764011      5.50596065247295     -1.34141275519695
  C      -0.55128806403843      2.03634087909948     -0.07084962226344
  O      -0.83607682796567      1.26460974695855      0.92994404602260
  O       0.11114769853092      1.45024126648891     -1.01587959646373
  H      -1.99997984923923      7.13063941882984     -0.31605044215635
  H      -2.53366766576073      5.79912024154825      1.71177391333014
  H      -1.85214911156257      3.40047053506580      1.83493073827214
  H      -0.09841748397810      3.71014463017650     -2.11285264508693
  H      -0.78781529924133      6.10467850404648     -2.22608268009453
  O       1.30034602829676     -0.74896859040891     -1.99343456715591
  H       1.31829978253947      0.06068134892017     -2.53401114128302
  H       1.83522363125731     -1.41231992939567     -2.45668356395512
  C       2.95362915564006      0.30748055075168      1.46729855510597
  O       1.90462933743912     -0.69710301254667      1.42395416386930
  H       3.92712150555231     -0.16554633218720      1.27954312291387
  H       2.94292357966407      0.81432524809871      2.44185565469898
  H       2.73917376948598      1.03717488553765      0.67334410298855
  H       2.05127808656191     -1.34487892636491      2.13147648872735
  C      -3.50250917391142     -3.37287979542004     -0.54680412878681
  C      -2.24389359657896     -2.77617631935646     -0.59107910904802
  N      -2.02996304268298     -1.58428269926278     -0.00588716647129
  C      -3.06700582468644     -0.99280798276320      0.61475859278829
  C      -4.31657048990346     -1.61323228080049      0.64429981292596
  N      -4.52457674618334     -2.79012615026322      0.06854879395552
  H      -3.67677002924297     -4.34442440881077     -1.02231451917653
  H      -1.40868499035037     -3.26691863791035     -1.10352810891285
  H      -2.89318358767167     -0.01998314046593      1.08618955883405
  H      -5.16194204689348     -1.13452193108220      1.15089325660715
