38
Coordinates from ORCA job orca
  Pu     -0.11662978068915     -0.00395181196436     -0.10010706744447
  N      -1.22003630472005      1.93518453291712     -1.27737734705313
  C      -1.70912892899896      1.75457198029080     -2.50756859724320
  C      -2.20879541573634      2.80181586397095     -3.27396704322399
  C      -2.19398731583530      4.08251959184678     -2.73391304662411
  C      -1.69941111626310      4.26855250783902     -1.44760066814947
  C      -1.22153150077898      3.16671619322576     -0.73589247113748
  C      -0.73109173841881      3.26882161924388      0.65599198552582
  C      -0.60656145604866      4.48296161110889      1.33375664013751
  C      -0.17848458846069      4.47904876933589      2.65723133029060
  C       0.09708227488905      3.26592445733648      3.27800344591347
  C      -0.04376649646047      2.09857964228040      2.53599726422286
  N      -0.42930481777184      2.10518796056299      1.25684743379191
  H      -1.70669036110402      0.72909877588369     -2.88565275789004
  H      -2.60005064577325      2.60299965886157     -4.27307911198310
  H      -2.57459875196507      4.93404907844133     -3.30347554451279
  H      -1.69946855478970      5.26236775621366     -0.99957224480728
  H      -0.83332436779250      5.42612650871262      0.83618811871189
  H      -0.06536363483485      5.42134069111716      3.19912106873956
  H       0.42464301362949      3.21128274482469      4.31745629066040
  H       0.15605979304345      1.11801415382978      2.97771693864627
  I       1.38144810406301     -0.19724312329704     -2.67199826714616
  S       3.82016704203300      1.72675009104034      2.28344263604667
  C       2.70965767171466      0.92987333126264      1.48174752636144
  N       1.84125844941747      0.33782255823845      0.90458058724637
  C      -1.06496039122431     -4.23314847083611     -1.01089779025458
  C      -0.37576409211662     -3.55683407283110      0.14602699509848
  O       0.27811746810792     -2.34358362745948     -0.26821756748920
  H      -1.54487265340068     -5.16037822274025     -0.66221892120960
  H      -0.34786219949541     -4.50912010041071     -1.80280108096557
  H      -1.83998404997235     -3.57938167522116     -1.43829714736326
  H       0.38684777080526     -4.20327109398367      0.61229832467874
  H      -1.08396709746966     -3.24780130161491      0.92651496441024
  H       0.83755462716696     -2.50098852975469     -1.04728579945556
  C      -2.25303825725123     -0.83967451651329     -0.85481334674009
  N      -3.20418328818310     -1.27260132693198     -1.37572378174329
  C      -1.10829843463539     -0.89564933455506      1.88719818653808
  N      -1.48567997467949     -1.22848287027153      2.94073986541608
