76
Coordinates from ORCA job orca
  Am     -0.19137205427254      0.48947835389966      0.22155083837925
  C       2.71437203536099     -1.28750826655914      3.31258954721349
  C       1.37179381455681     -1.05098385376803      2.70055655118499
  C       0.24359984275645     -1.73666561597684      3.17384027997671
  C      -1.04730089014352     -1.57832021651137      2.64824723100608
  O      -1.31803731643187     -0.84809876531114      1.63476167993347
  C      -2.20730589781529     -2.28253993061557      3.27680399285434
  O       1.32886835904764     -0.19934976563289      1.75064992415251
  H       2.68101057964438     -1.96560336265347      4.17427418215018
  H       3.16186371268313     -0.32660898290180      3.61273454287900
  H       3.36841538516317     -1.71796460189013      2.53600369342431
  H       0.37190408615827     -2.41116298476922      4.02064166951414
  H      -1.92305123946491     -2.87327337267146      4.15619797290925
  H      -2.67646343540020     -2.94565112137169      2.53145699693930
  H      -2.96455403051875     -1.53614581494321      3.56729411405054
  C       2.96137130461848      2.38115160099666     -2.47831478843320
  C       2.44697904346227      2.76852078032938     -1.24090979205361
  C       1.06421193211102      2.79360466415346     -1.03903229197489
  C       0.19285432256297      2.43050555164826     -2.08190381533154
  C       0.71778143528488      2.07015764655039     -3.32751603422504
  C       2.09681210781492      2.04125006459991     -3.52083471119553
  C      -1.29813278479748      2.35328843513861     -1.85471052633222
  O      -2.08382453852985      2.47048306949147     -2.77384123550469
  O      -1.60190118081014      2.03248493449155     -0.62744101281024
  H       4.04223866847114      2.36363234341107     -2.64094223630423
  H       3.12053556268146      3.08119841462191     -0.43784366148685
  H       0.64994131650594      3.18785388522530     -0.09883422884050
  H       0.01811168087417      1.82074440517652     -4.12998624126374
  H       2.50584362087792      1.75750284922519     -4.49436578787305
  C       0.81014294940811      2.45794787364823      4.17915262979817
  O      -0.56520330856980      2.51616136592878      3.84715488368461
  P      -0.96928034358386      2.55930347955332      2.26628847435629
  O      -2.54333677432622      2.83246013338142      2.46778155513426
  C      -3.54201699545400      2.02187720508979      1.85767215094293
  O      -0.38444785289590      3.99033808129796      1.76905451397795
  C      -0.82123395783897      5.22348687841182      2.33858401849892
  H       0.88798587956862      2.06535060695902      5.20214649823735
  H       1.26770787182226      3.46088106364682      4.14535543488756
  H       1.36736868231858      1.79004819887677      3.49643675560194
  H      -4.47289697998554      2.19292490958656      2.41457036187098
  H      -3.28252844441996      0.95102800756432      1.91815064577136
  H      -3.67746860431543      2.29869525258599      0.80146275200903
  H      -0.15186472228002      6.00742725154051      1.96199770618208
  H      -0.76916155013322      5.18559125293547      3.43810290219182
  H      -1.85563506830614      5.43839068005130      2.03301281920056
  C       4.23908382069006     -0.26324861456259     -0.44911391429629
  O       3.45703666032326     -0.90662995605611     -1.43903698657940
  P       1.90417293214437     -1.29426142369299     -1.10076446752423
  O       1.56833561512343     -2.15417257580502     -2.42685848300561
  C       1.34565856920013     -1.54515847784738     -3.68749858626381
  O       2.01292056692714     -2.49562920307991     -0.02127042351096
  C       2.70497045069709     -3.70803806048056     -0.31470403827416
  H       4.96772270855991      0.38473468747851     -0.95627320846751
  H       4.78634924357830     -1.00978210744654      0.15039329240692
  H       3.62247888445541      0.35080380891481      0.23140405289692
  H       1.07617075295508     -2.34819264388949     -4.38614396031294
  H       2.26039479531577     -1.04643595936132     -4.04638035014165
  H       0.51519334913337     -0.82227604452699     -3.63729789687412
  H       2.89773023877963     -4.20836531760510      0.64359160673585
  H       3.65899440107553     -3.50060364236218     -0.82456354415645
  H       2.08824142620161     -4.35531185022304     -0.95474514277557
  C      -6.09523257238594      0.00927270928486     -0.40796257772482
  C      -5.15820275168554     -0.86536134844628      0.14505413560348
  C      -3.90969302513587     -1.01241350171649     -0.44935877931712
  C      -3.61252364331634     -0.29916031848644     -1.61746857076396
  C      -4.54858640313643      0.58605950620390     -2.16951423967410
  C      -5.78720414026775      0.74104887563402     -1.55628035486277
  C      -2.28254158633331     -0.47727300039409     -2.22476243487759
  O      -1.27335117124876     -0.72013188048918     -1.56087252482937
  O      -2.15582225953942     -0.39616276688558     -3.52737195778270
  H      -7.07446337554319      0.12635238887104      0.06390406268667
  H      -5.40498540272716     -1.43535214306678      1.04455301423907
  H      -3.15705694982356     -1.67771627581053     -0.01940752068628
  H      -4.27554881912679      1.21958399539923     -3.01925376349488
  H      -6.51243212889617      1.44637982803634     -1.96876602845155
  H      -3.00590640945375     -0.18575127202976     -3.94318136520516
