35
Coordinates from ORCA job orca
  No      0.86620015960244     -0.76232809218737      0.42507711681894
  N       2.27602420169361      0.88209757676127     -0.94287929151701
  C       1.40754484757487      1.41807718378043     -2.00278191153021
  C       0.11213175875023      1.96571181115492     -1.42280561347800
  N      -0.66139562556669      0.96927487752816     -0.68386433638382
  C      -1.76013784786463      0.31419794822552     -1.39216831998663
  C      -1.38712804986734     -1.03833566263265     -1.97957808421585
  N      -0.93803693221422     -1.96448156370396     -0.92829124188680
  H       3.13840740574782      0.51946405602203     -1.35470499010956
  H       2.58277517971029      1.64924003130222     -0.33754198079221
  H       1.90298167937298      2.21656838261518     -2.58367421705115
  H       1.19143484878892      0.60354736338093     -2.71492668749280
  H       0.35652889369447      2.79221892854216     -0.73343684481068
  H      -0.48293082302407      2.41457716982811     -2.23981639241522
  H      -1.00383479892248      1.36898449221302      0.18873130348766
  H      -2.58885060239731      0.16926107526193     -0.67796860945825
  H      -2.15960828347057      0.95613832666874     -2.19933560683789
  H      -2.25437382246496     -1.43277239843185     -2.53857947623493
  H      -0.57021348619989     -0.92707175831489     -2.71308011172736
  H      -1.72275861569947     -2.17314068315827     -0.30397320845926
  H      -0.69110840204271     -2.86480631762233     -1.34412988947927
  C      -0.55246128609536      0.33515732285786      7.13535495905293
  C       0.42582112497019     -0.59485045022404      6.77947236282307
  C       0.72288648946825     -0.81032931586577      5.43813374576153
  C       0.03996905390759     -0.09080361184767      4.45023047048381
  C      -0.94001641652835      0.84230929651784      4.80959471741970
  C      -1.23573281962762      1.05298995351037      6.15198028245122
  C       0.35677069871133     -0.32288748746293      3.02502245914589
  O       1.22363248302416     -1.18632147265027      2.69658349856605
  O      -0.24955996572266      0.34592805460257      2.12062558509020
  H      -0.78515442437429      0.50248314511519      8.19040843037541
  H       0.95772730818582     -1.15280646578682      7.55399937945313
  H       1.48368835927892     -1.53246270109039      5.13296443232159
  H      -1.45985237494807      1.39263226685375      4.02235284608045
  H      -2.00126991545121      1.77883871823703      6.43720522453526
