24
Coordinates from ORCA job orca
  Th     -0.00551723162381      0.85925591013157     -0.05930980360651
  N       2.30418108712986      0.26910399339301      0.41956162932054
  C       3.17656672592317      0.20530234610185     -0.60414643396372
  C       4.51677469541802     -0.09512625017623     -0.42086824432761
  C       4.95994203354614     -0.33334450899471      0.88118380033957
  C       4.05788470954153     -0.26895128884388      1.94357639211201
  C       2.72381709669404      0.03489371325799      1.68973342065447
  C       1.67450217894734      0.12561275708761      2.72002362991913
  C       1.88802393560650     -0.09557107343573      4.07458172885988
  C       0.81436284108628      0.00770421961060      4.96247977386653
  C      -0.45193718587628      0.32612085229610      4.47772537401728
  C      -0.60014291620360      0.53801806512177      3.11452521754579
  N       0.43559491561557      0.44326424971475      2.25906968476968
  H       2.79186403639761      0.40114853152709     -1.61660038156195
  H       5.19452612521099     -0.13999026529888     -1.27653086466267
  H       6.01079218253393     -0.57047973181645      1.07149824073480
  H       4.40378338285800     -0.45656389649735      2.96142185436620
  H       2.88043182758532     -0.34989894572661      4.44990648172857
  H       0.97174383764352     -0.16311643199225      6.03129317826635
  H      -1.31722004845719      0.41097874867480      5.13926779373091
  H      -1.58220126179421      0.78755576852108      2.69450477454626
  C      -1.68248870582030     -0.78032641368808      0.25293397593417
  N      -2.47892469194624     -1.63073697403565      0.34454039129847
  Cl     -0.71235957001624      3.14244662506760      0.54742838611178
