37
Coordinates from ORCA job orca
  Cm      0.30295442154887      0.71891495936545     -0.03616153279931
  Br     -0.30540697036325      2.79824675263178      1.67201314646669
  C      -0.56041706218606     -3.26628195868526     -2.94936535088582
  C      -0.57130190654960     -2.20776180672442     -1.96677604879641
  N      -0.56960452395161     -1.35024683300459     -1.18946538748667
  H      -0.28450969963310     -4.21820339519295     -2.47185484574577
  H       0.18237636188635     -3.01037190757653     -3.72166256982663
  H      -1.55595199164990     -3.36447737065936     -3.40739411824601
  C       3.79991209920946      2.00924964759418      0.90777718358527
  O       2.77778575978496      1.52808139050709      0.81019786585633
  C      -3.50482633365336      2.89130351944591     -1.97648310936225
  C      -2.54969838576946      2.39528296665642     -1.08817660779431
  N      -1.57609165286709      1.58319628520969     -1.51653986536476
  C      -1.54909442607532      1.28434163017584     -2.82197298735816
  C      -2.50681777985511      1.79910265159247     -3.69301998228414
  N      -3.48277375895868      2.59446310327264     -3.26971098418353
  H      -4.30246893213770      3.55079641043845     -1.61827846916232
  H      -2.54858786188330      2.66503233597708     -0.02723627250742
  H      -0.75351124798122      0.62732738065548     -3.18679106128995
  H      -2.47239283760624      1.55647723463232     -4.76063016716680
  C       0.82884656168087     -2.50068537746339      3.72532623621391
  P       0.46257777790509     -0.81142017243527      3.24200453340901
  O       0.50529685901994     -0.69942708083977      1.69426011281779
  C      -1.16179769099667     -0.36743945341305      3.86157631042006
  C       1.66907494302540      0.28325460656671      3.99508242858344
  H       0.79789306085151     -2.60986922932180      4.81997107411374
  H       1.83013778349264     -2.77351638035238      3.35926144443316
  H       0.08824511686172     -3.17533668976096      3.27015106525500
  H      -1.19934786057384     -0.45200518274914      4.95836505490198
  H      -1.91624593455522     -1.03566144505393      3.41901985497661
  H      -1.36932416880130      0.67333636983554      3.56250248787015
  H       1.64293550178340      0.19438172376898      5.09195974391640
  H       1.42522486843768      1.31792695819453      3.70266716932549
  H       2.67572359134194      0.02301333646454      3.63409412654751
  N       1.68323769083906      0.54797573820638     -1.80501500797986
  N       1.68336365020998     -0.14358161205955     -2.78556758415322
  N       1.65038497816922     -0.80931910589915     -3.71582788629923
