57
Coordinates from ORCA job orca
  Lr     -0.28678145372603      0.61038612064230     -0.38385050264260
  C       1.40826292896499      0.69793841688417      2.54396605399571
  N       0.78658679680264      0.36694895468450      1.59661072077005
  C      -1.64906460184927     -0.12420553267964     -2.20263496384171
  N      -2.45313500346422     -0.53731209011211     -2.94111191291113
  C       3.10038849811657     -0.78489037211290     -3.23888026425533
  C       1.66560927186627     -0.52748855826323     -2.85933331455403
  O       1.53492729682201     -0.34050584593948     -1.43646664880203
  H       3.18516528209719     -0.90609457790906     -4.32932563228069
  H       3.47810260841281     -1.70887647600527     -2.77148443725564
  H       3.74996379884535      0.04886024858528     -2.93194381297924
  H       0.99872627847786     -1.34888474142737     -3.17221795367288
  H       1.28233526639872      0.39414635913503     -3.32332883304697
  H       1.77892187216772     -1.18070463794776     -0.97981033456200
  C       1.04119673511356      5.29740154370134     -0.84852340835195
  P       1.12181987302139      3.81376239916316      0.15622082019304
  O       0.29846351745787      2.68988132448470     -0.53519645231976
  C       2.83694081940886      3.32438744789821      0.34806105513714
  C       0.45891925039983      4.17351577960670      1.78516973188801
  H       1.61331372955422      6.11532636619191     -0.38522087535915
  H      -0.01043645440802      5.60219156135572     -0.95856075626817
  H       1.45276070050893      5.08144367987361     -1.84592810104096
  H       3.42031850734894      4.13962559823194      0.80297572494346
  H       3.26074490280535      3.07737260236156     -0.63714617132919
  H       2.87840877742285      2.43778677990357      1.00159218041590
  H       1.00794258025619      5.00805007161729      2.24784384843491
  H       0.56580224884308      3.27535876973926      2.41543021236837
  H      -0.60444009600755      4.44351097294533      1.69570659429560
  C       1.76045086738115     -4.01291314561365     -0.25651104688633
  O       1.25525141642650     -2.67306047815001     -0.19701446054148
  P      -0.33557273772675     -2.35784148817400      0.06378709149723
  O      -0.96879626633130     -3.38008634620704     -1.00401836761612
  C      -2.37539783233908     -3.54928540950689     -1.16788433106579
  O      -0.68595482029784     -3.16939063024764      1.42948344518057
  C      -0.11618244500411     -2.82500652858513      2.68878631822181
  H       2.82031268538791     -3.97281190177304      0.02688205272176
  H       1.65071685007982     -4.41084897514989     -1.27531737690512
  H       1.21181772220680     -4.65708331692670      0.44626214878481
  H      -2.50937568473110     -4.33671330405859     -1.92010825809486
  H      -2.83671732104736     -2.62081976814266     -1.54013446040587
  H      -2.83675028509989     -3.87415322645749     -0.22185133067444
  H      -0.62819883905606     -3.43138493973908      3.44708951183710
  H      -0.24239383310938     -1.75560537670126      2.91751138986140
  H       0.96050930533713     -3.05824867916119      2.70522159633377
  C      -3.51488886408254      1.26302166233678      0.22362017296028
  C      -4.59677307257882      0.56105841426022      1.01464911553863
  C      -3.96508759224476      0.46110098306208      2.39821747878081
  C      -2.52613298260737      0.11850275009361      2.07013308234531
  O      -2.27195846909653      0.76593978171756      0.79449198650458
  H      -3.53961470889183      2.35673035639290      0.36689449437764
  H      -3.51272659827693      1.02695026502451     -0.85072592340553
  H      -4.78486010705352     -0.44133842527876      0.59576418777976
  H      -5.54575103589498      1.11565533706174      1.00340142839815
  H      -4.43269914913253     -0.29818238409509      3.04122020519978
  H      -4.02283470031411      1.42925477924311      2.92194938002557
  H      -2.38277440501293     -0.96696998721983      1.93186076462638
  H      -1.78538102854761      0.48869781738655      2.79342713765148
