32
Coordinates from ORCA job orca
  Ac      1.11752861477234      0.72469205808032     -1.05749235245042
  C      -3.87649776260755      5.35020946526504      1.09901541060557
  C      -2.83046480086381      5.01869647579491      1.96152712552990
  C      -1.91794488753494      4.03254464353299      1.59947123946858
  C      -2.05671186129243      3.37231114311497      0.37446125081260
  C      -3.10850847345028      3.70175705649340     -0.48648599616075
  C      -4.01592556541732      4.69231901589038     -0.12401497144889
  C      -1.06473252966258      2.34044790689635     -0.02923592786137
  O      -1.21561328572305      1.72575445418741     -1.12821905581738
  O      -0.06470379508224      2.11244270269659      0.71663654637948
  H      -4.58829381351429      6.13087329423756      1.38133337916632
  H      -2.72486346201858      5.53765375728541      2.91782459565211
  H      -1.08351642954243      3.75972735111466      2.24991795018625
  H      -3.18858246797860      3.17307576991493     -1.43921827002774
  H      -4.83372012640742      4.95805666221400     -0.79890750783218
  C       2.87558577899854     -2.37879898769502      2.12883530527517
  C       2.28753847478201     -1.97961360764067      0.80565460367457
  C       1.77271178456215     -2.97803716925226     -0.04483196191823
  C       1.23052291985882     -2.74964541788101     -1.32506295118899
  O       1.04001155094918     -1.60186457387984     -1.83001701009769
  C       0.85784084045291     -3.92585963284720     -2.18042254461069
  O       2.29093265164374     -0.74096228470162      0.53519418635100
  H       2.86041303603973     -3.46341756027090      2.29693137978431
  H       2.31260564586768     -1.87775968601836      2.93326073872900
  H       3.91126887353714     -2.00963919380209      2.19188465200064
  H       1.85930802698682     -4.01379014489933      0.28621301797463
  H       0.95913087290434     -4.88600054914250     -1.65825806623527
  H       1.50576946154678     -3.93079432821276     -3.07224797518260
  H      -0.17545292471655     -3.80366592219351     -2.54036645012382
  C      -0.77751874546776     -0.93754158212662      0.81690485755641
  O      -1.34170553579703     -1.42439323094130      1.66134373907709
  F       2.41268793417469      1.97032211478601     -2.30962893726763
