36
Coordinates from ORCA job orca
  Lr     -0.45569288522423      0.07702396107758     -0.88156505772044
  F       2.61419355677342     -1.35223770705016     -3.22927131368090
  P       2.29999230444900     -0.17908033547063     -2.22657308604340
  F       3.42170180384147     -0.44638777355914     -1.14543010535687
  F       2.97219902480634      1.02834882561050     -2.98889454748067
  C       2.07729766607849      6.19467356421806      1.60821113043769
  C       2.31971819086956      4.97527297871106      2.24452298510784
  C       1.93089570521237      3.78993725852456      1.63716431336518
  C       1.28342299323172      3.83011578198201      0.39117021038943
  C       1.04885687873436      5.05916928239551     -0.25021848578462
  C       1.44889572071679      6.23837119179945      0.36087449274445
  C       0.86726904590795      2.57333167399320     -0.19747218941272
  O       1.21774293855973      1.44974903824327      0.16444157879644
  O       0.00890131236900      2.55686860579701     -1.22965652358805
  H       2.38528785566277      7.12683069949841      2.08882622598494
  H       2.81296312053760      4.95329007452068      3.21864761238931
  H       2.10504392890620      2.82450312907018      2.11729526533873
  H       0.58742746279622      5.11055585967511     -1.24217706247591
  H       1.27715495719908      7.19586923638059     -0.13525544452152
  H      -0.43715200579018      3.39650819862456     -1.42493427603837
  F      -1.80588519364963      0.69500277634242      0.44597419308129
  C       1.76926125248726     -3.97147645615742      1.43349833477307
  C       1.02481932170833     -4.16047290584025      0.27153830728192
  C       0.45805110772909     -3.05501163760338     -0.34848042891999
  N       0.60567573041858     -1.80825999033343      0.13746475857810
  C       1.32426674584266     -1.62727432456904      1.25943044746017
  C       1.92131696245183     -2.68069087233139      1.93656623057770
  H       2.22590885727535     -4.82362696801284      1.94405665474337
  H       0.87824159508128     -5.15445749434709     -0.15594053818361
  H      -0.13806367901150     -3.15874155088063     -1.26060830787741
  H       1.42255281331334     -0.59854813119410      1.62043306022649
  H       2.49460944385483     -2.48856414641032      2.84550449891430
  N      -1.38043794769634     -0.73766680405861     -3.32714898589573
  O      -1.76446971167209     -1.08622820654943     -4.38529047793438
  O      -1.23010083518485     -1.53579503400686     -2.33531245289983
  O      -1.06056603858613      0.47229820191023     -3.05619101637598
