39
Coordinates from ORCA job orca
  Bk      0.44959831022240      0.33752517799609      0.80248315266849
  C      -1.89003606965721     -2.13501487558075     -0.48997470760225
  N      -1.19043697459050     -1.28938380220308     -0.06558958113755
  N       2.46491786750473      1.69313598617553      0.08126616905054
  H       2.94246557958133      1.39264567869291     -0.76661208520478
  H       3.09911011316325      1.55315130631819      0.86851428823662
  H       2.24194998237669      2.68488382113556      0.01529124614094
  C       2.32688308155491     -0.77172647683843      3.45000444477954
  O       1.83750038508489     -0.35689614135087      2.23921949230213
  H       3.03903519459563     -0.04233377039721      3.89573083429759
  H       2.87743321126316     -1.73469088225334      3.37739833394335
  H       1.52432597736077     -0.92352231949464      4.20476663024412
  C      -2.38180640507353      1.70202191559823     -1.46878149332884
  P      -0.61394803870232      1.39736198023945     -1.84062181909403
  C      -0.05317934982822      3.07273317537405     -2.34490986376763
  C      -0.70289055382190      0.49251727013142     -3.43703673748516
  H      -2.90653743850594      2.20748652733162     -2.29633926254081
  H      -2.41281054426957      2.31994361407179     -0.55820936852286
  H      -2.86399062868823      0.73638095055014     -1.25123908841389
  H      -0.68878170847578      3.51516175166634     -3.12993135426738
  H       0.98612643894855      3.03171045102565     -2.70859575511989
  H      -0.08535608981264      3.70693360790422     -1.44466969410439
  H      -1.31118053160470      1.02125663716029     -4.18958680569363
  H      -1.15085403264458     -0.49518991442223     -3.24075012104442
  H       0.31270101204902      0.33905049499943     -3.83501987072559
  O      -0.33506072212288      2.30045755704748      1.11511624514025
  H      -0.74414206257137      2.68192549806180      1.89628632723805
  C       0.78506409696483     -3.30913841739101     -2.09034397789224
  C       1.36069050634650     -2.09352992081078     -1.56149029097909
  N       1.77155419588409     -1.10662397388214     -1.11620204848074
  H       0.82908073705102     -3.30937998518026     -3.18899474455561
  H      -0.27026512681776     -3.34069409343336     -1.75871890935703
  H       1.32171290056991     -4.18629016296040     -1.70083401281596
  C      -3.22960694025385     -1.89519481022592      2.65532497615631
  C      -2.14653471158187     -0.94387041357648      2.75982200800338
  N      -1.26467781961865     -0.19480047683603      2.77958560623681
  H      -4.19646282260879     -1.39645550274501      2.81418464088935
  H      -3.10667389417084     -2.70099756949889      3.39301265138934
  H      -3.19281712510055     -2.31574989239936      1.63374454541700
