42
Coordinates from ORCA job orca
  U       0.14997237964149     -0.16544247311212     -0.42443440912288
  N       1.79111413181223     -1.63677101971330      0.89500830208172
  C       2.68649659425539     -2.36184804620635      0.22585727231485
  C       3.66148809430422     -3.12788057870035      0.85544155612487
  C       3.68991061099765     -3.12822046884164      2.24638112187425
  C       2.75322527670669     -2.37408685102304      2.94616306461389
  C       1.80427140119940     -1.63091529468740      2.23912991973115
  C       0.77227000552572     -0.80294728477225      2.90983381408904
  C       0.62287707945608     -0.76673250928532      4.29773917643493
  C      -0.36978151002173      0.03224985324036      4.85729741708695
  C      -1.19141773780889      0.78014425051708      4.02102009722344
  C      -0.98412494095802      0.69280316329186      2.64822915609213
  N      -0.03239668504867     -0.07570714933462      2.11250169193212
  H       2.62791715097513     -2.33411900244481     -0.86934966297823
  H       4.37565283543504     -3.70581823202798      0.26595638990596
  H       4.43814445434826     -3.71227336132794      2.78791367242732
  H       2.77188837453428     -2.36555746915155      4.03618619479326
  H       1.26827612673835     -1.36031650649690      4.94564340188345
  H      -0.49840097116488      0.06667344680488      5.94195894731081
  H      -1.98211472730334      1.41995422297566      4.41725581785595
  H      -1.60041017473070      1.25637824901828      1.93862303869099
  C      -3.38542361385025      2.74216886545319     -0.87982736256578
  C      -2.27420260391237      1.87642602464585     -1.37836531704681
  C      -2.06449517109666      1.71307967399444     -2.75213530930948
  C      -1.03238203841926      0.94169826406689     -3.31742981824386
  O      -0.18753034684578      0.28898992964847     -2.62102162440715
  C      -0.88036209610291      0.85331459285217     -4.80068394773191
  O      -1.55032689876674      1.31836301245831     -0.47777772803863
  H      -3.96463137298865      3.19981633333786     -1.69088488239076
  H      -2.96696829579682      3.53458849301478     -0.23839729178586
  H      -4.05782244370884      2.13820085372082     -0.24894627614001
  H      -2.73596184538720      2.23726587242541     -3.43224570300705
  H      -1.62347144772094      1.45074817269206     -5.34254795679382
  H      -0.96541187406090     -0.20237923313251     -5.10584782782971
  H       0.13322785266321      1.18252496171176     -5.08016290252818
  O      -1.06521484957873     -1.82188304781888     -0.54424593757971
  H      -1.71457365837022     -2.51019959435433     -0.71196111460583
  C       2.59476783022856      2.24168904029980     -0.17048702260065
  O       1.64123014023322      1.23006701855342     -0.26311919385617
  H       2.23635917467944      3.05741503519768      0.48035817915715
  H       2.81300599381816      2.66572571798635     -1.16548604556949
  H       3.53692979608994      1.85161307452392      0.25255910250772
