47
Coordinates from ORCA job orca
  Fm      0.34428337631782     -0.35230899298074     -0.61370220583667
  C      -2.15076958888177      5.96005943852819     -0.37775006007467
  C      -1.92443442360765      5.26586416008802      0.81479184420519
  C      -1.38487859263130      3.98839319701316      0.77760226721403
  C      -1.07158830836912      3.40857975740743     -0.46534003768032
  C      -1.29840073154307      4.10962283622311     -1.66418275282883
  C      -1.83933599192307      5.38562538536596     -1.61422393335127
  C      -0.52061528933125      2.07533156424207     -0.51655856822385
  O      -0.21434131874107      1.49732928466321     -1.62625431935685
  O      -0.31538346731449      1.36455816533504      0.54305625561025
  H      -2.57701429140731      6.96636633528764     -0.34342697299538
  H      -2.17137234428987      5.72963953544390      1.77237104123301
  H      -1.19896969913453      3.42820564976195      1.69706029625987
  H      -1.04880017742641      3.64075347014177     -2.61899664165961
  H      -2.02206842942257      5.94105800121263     -2.53694633576831
  F      -0.68639278184025      0.21644691726534     -4.48006280498460
  P      -0.76748338928206     -1.32534458756949     -4.18741789536857
  F       0.26963614646098     -1.25889706703942     -2.82987874740171
  F      -2.06329252801588     -1.31219514643174     -3.26335556361331
  C       7.06044506598629     -0.33966568168807      1.84041640571400
  C       6.01479427940209     -1.05930519629546      2.42551411824518
  C       4.74337057190117     -0.99684293005493      1.87718626071192
  C       4.51464660768030     -0.19976418162476      0.73689264585860
  C       5.57624220352988      0.52252066606823      0.15126346646960
  C       6.84333124722781      0.44915199436846      0.70459348072429
  C       3.18434451722561     -0.16795788122054      0.19414670586341
  O       2.22606498891381     -0.86641596677433      0.57711046934816
  O       2.85233004314015      0.64089728944721     -0.82002236474178
  H       8.06303174340071     -0.39365265503893      2.27340468196141
  H       6.19915619636654     -1.67005976663406      3.31212212103281
  H       3.91293388487628     -1.55147428845299      2.31961739102534
  H       5.44138928659680      1.13119612748511     -0.75003733011457
  H       7.67094471319863      1.00065752868617      0.25307629754953
  H       3.54335691782341      1.26270666656764     -1.10278390846365
  C      -1.48554431361762     -2.91823978865459      0.55966806270266
  C      -2.82188419426734     -2.97542818341576      1.26453187550559
  C      -3.70635336934786     -2.13048090839280      0.35429371170882
  C      -2.79676895871382     -0.97982064893781     -0.01611823808543
  O      -1.44876845574328     -1.57437859539394     -0.02824849912987
  H      -1.41328298416433     -3.64540256956750     -0.26502529835005
  H      -0.61544574626028     -3.02276930767221      1.22627176328104
  H      -2.74918319897363     -2.52921038466277      2.26935134377254
  H      -3.17977638746789     -4.00845365807908      1.37891358132957
  H      -4.62365422148346     -1.77948816198639      0.84778251184824
  H      -4.00168292344417     -2.69638112959099     -0.54371118498232
  H      -2.79141820509515     -0.17826360302464      0.73996512288142
  H      -2.98549747830800     -0.55736268941864     -1.01426005904488
