28
Coordinates from ORCA job orca
  No     -0.06679327942142      1.39116207431693      0.41092881100750
  C       3.78490790740069     -0.76852345484239     -1.45434032182161
  C       2.58059993048213     -0.07887629280844     -1.33068367766153
  N       2.07664899224297      0.21894698542211     -0.12707494080649
  C       2.77366620280108     -0.17146200618013      0.94844934939187
  C       3.97994527041507     -0.85978031149704      0.80384168494131
  N       4.47956432249112     -1.15465417213563     -0.38978172964687
  H       4.19040081812269     -1.00984138806110     -2.44293271723649
  H       2.01908231543488      0.23365316141343     -2.21759412666381
  H       2.35894637208470      0.06142189610610      1.93708998361637
  H       4.54587282294065     -1.17549203390629      1.68682266748436
  C       0.03264609663315      0.89772494477597      2.72849275617648
  N       0.44263573398503      1.20169370030320      3.77954467154763
  N       0.15201353868488      3.74696585624347      1.26969472215423
  H       0.27290127249478      3.51313052005215      2.26341000612757
  H      -0.65172295578794      4.37848720974800      1.23178590341028
  H       0.96036668820327      4.32071333236601      1.01760817614303
  C      -4.63505960796504     -0.98385250462865     -0.53544952014757
  C      -4.04284770046227     -0.32328654599727     -1.61107389102922
  C      -2.84603966906952      0.34813802409544     -1.40005891123936
  N      -2.23730679196583      0.38436981372059     -0.20555541330292
  C      -2.81018607406858     -0.25262180865789      0.82846046781584
  C      -4.00821385315274     -0.94745325955256      0.70752616964007
  H      -5.57755610239477     -1.52209251131669     -0.66624435875862
  H      -4.50099273562541     -0.32627550654828     -2.60221026766432
  H      -2.35665546711170      0.87813667791907     -2.22480210215700
  H      -2.28264544947279     -0.20162034553463      1.78974148526544
  H      -4.43557859791910     -1.44981205481551      1.57770512341385
