46
Coordinates from ORCA job orca
  No     -0.48179799317998      0.28588678537966      0.45443331459216
  N       1.20508580970484     -1.77419406323887      0.82881424152798
  C       1.44239620952203     -2.40799560511046     -0.45973867881484
  C       0.13422581727386     -2.73698711752922     -1.16640143821059
  N      -0.70582439832917     -1.57232090455627     -1.39857616455670
  C      -0.58377311406896     -0.92543649236955     -2.69895064664974
  C       0.67902083186382     -0.08669572350690     -2.83875645121467
  N       0.75427471943210      0.87554952842041     -1.75924883455624
  H       2.08074560393411     -1.36891332295568      1.17236266967643
  H       0.90445833627021     -2.46034835512789      1.52184498972021
  H       2.04159878282597     -3.33763357944889     -0.38613330727411
  H       2.03120178761668     -1.70558815560281     -1.06875705565381
  H      -0.42855933246024     -3.44661730201452     -0.53390380190776
  H       0.35782509659909     -3.27396435913675     -2.11156793139091
  H      -1.68064517120643     -1.80435099360613     -1.23188578619756
  H      -1.44702468405652     -0.24592368206385     -2.79206758511150
  H      -0.62206323231107     -1.66027316615207     -3.53058835074696
  H       0.65579956609968      0.37347829588204     -3.84826988220207
  H       1.57467417523034     -0.73320052286573     -2.82592992514601
  H      -0.08635675025738      1.48382321805478     -1.77286088673996
  H       1.60071910166981      1.43865555014713     -1.79022912199351
  O      -1.79103820232132      1.47753036466783     -0.96694254130529
  H      -2.26735162757673      2.30754739740878     -0.87815375227314
  N      -2.95507053462684     -0.51728804942067      0.67762129178116
  H      -3.67585188656209     -1.19573920878649      0.44001571342366
  H      -2.96423717073216      0.24453136239122     -0.02929203803726
  H      -3.21611583394673     -0.08615775001547      1.56490255590271
  N       2.36079188744906      0.81981241830186      2.15408201724944
  O       1.43154682907308      1.41256922757482      1.55449173424161
  O       3.27243779757870      0.29757415930810      1.53643853751896
  O       2.32037517345876      0.75662739552065      3.40377457218234
  C       0.58200399503852      5.51814340232792      4.45249311940451
  C      -0.29086262212182      5.38285786127845      3.37146242187507
  C      -0.72485145559133      4.12029304870843      2.98567764131534
  C      -0.28030353438848      2.98490878788497      3.67283303979180
  C       0.58993546760548      3.12382868410000      4.75903710495749
  C       1.01838262790325      4.39029368719939      5.14665540963972
  C      -0.75283290637820      1.65588917349453      3.20782455777912
  O      -1.66224607979978      1.54847054985943      2.39376112995266
  O      -0.16395115543272      0.57945281050000      3.68143216423616
  H       0.92492153217994      6.51139431199798      4.75513322385895
  H      -0.62983514448550      6.26799205477263      2.82697850062861
  H      -1.40518021230092      3.98315374827976      2.14175651926708
  H       0.93243599235532      2.24182542557319      5.30438431544292
  H       1.69932389830819      4.49761536992714      5.99472377594936
  H       0.84519200314149      0.72672373454698      3.76931961806699
