44
Coordinates from ORCA job orca
  U       0.10868470581953      0.14927140183340     -0.24725807041523
  N      -0.64668270881101     -0.73712058616546     -2.50440731772238
  C      -0.97363878661969     -2.17955492727688     -2.46901404859183
  C       0.11081301281772     -2.92974826494737     -1.72775757481038
  N       0.24872542756720     -2.38444084411918     -0.36206217571254
  H      -1.46513795047827     -0.21400741338466     -2.82966887193820
  H       0.08037250012583     -0.56820391161494     -3.20747203102992
  H      -1.09741847299609     -2.59390458974148     -3.48264364807506
  H      -1.93901362946897     -2.29068085257422     -1.94926491077038
  H       1.07920117975947     -2.81185260618945     -2.24213163112602
  H      -0.11660852815304     -4.00813717363463     -1.71704609614105
  H       1.09176897802705     -2.75707141584864      0.08363995141089
  H      -0.52501607261092     -2.71466648122755      0.22502898335940
  Cl     -2.31774796490075     -0.20715650834348      0.33592837985669
  O       1.94708183792849      0.50586457246077     -0.98855206458256
  H       2.85228361818753      0.70648341359328     -1.25918020996341
  C       1.54522169207922      0.87010705694216      6.77796076305440
  C       0.99852835092593     -0.41508496912879      6.71385327952694
  C       0.70989301948233     -0.97988457734964      5.48108182424154
  C       0.96526370622367     -0.25585413911849      4.29947481099000
  C       1.50453097655160      1.04187695335512      4.37514917929404
  C       1.79704316740409      1.59727958144996      5.61174735641539
  C       0.68624396213139     -0.82011895274984      2.99362112850894
  O       0.72191621956221     -0.14754677528648      1.93867018519945
  O       0.38666078684855     -2.08791752191417      2.84974724163568
  H       1.77531331051828      1.31011757991406      7.75202912048545
  H       0.79389363965043     -0.97131728544903      7.63122615682363
  H       0.25502011049297     -1.97733275606356      5.46720727482400
  H       1.70610654526166      1.59524704725779      3.45562608504505
  H       2.22683046414623      2.59953335510600      5.67481446189820
  H       0.42374702162220     -2.56791931931477      3.69351621552699
  C      -2.33207251925569      2.70103868717536     -2.23228540295601
  P      -0.96956158249769      2.83630927786555     -1.02070522735392
  C       0.14123321411273      4.11001218873128     -1.70860545226533
  C      -1.74964379653525      3.62666237941166      0.43027242549562
  H      -2.80837969649797      3.68405384562441     -2.37959999685397
  H      -3.08997938929049      1.99378310642956     -1.86092104335511
  H      -1.95035272628906      2.35760970381157     -3.20677450151100
  H      -0.41818333681694      5.03718730944176     -1.91208189907577
  H       0.59458053544809      3.75442391854627     -2.64628101012743
  H       0.94785538493355      4.33235024648537     -0.99349309341182
  H      -2.23410299314783      4.57112973439760      0.13410224441053
  H      -0.99295994045048      3.84695997010972      1.19929632954985
  H      -2.50781327280779      2.95322054149997      0.85871288023650
