45
Coordinates from ORCA job orca
  Th      0.17977197898391      0.72527810343156     -0.14652655336780
  C       2.58033186600756      0.38808958125080     -2.60108700386175
  C       1.40593439561648     -0.54209828735071     -2.86227748592430
  O       1.38325576073061     -1.40779030431438     -3.67713374914780
  O       0.37378925619993     -0.25474384591443     -2.03867445671867
  N       2.61315231770341      0.79020218533569     -1.18097883032397
  H       2.42874348861361      1.28327786675433     -3.22728659162050
  H       3.51156846196263     -0.09031625102932     -2.93871331922173
  H       3.01677340621111      1.72576256399318     -1.08829583121011
  H       3.24497264399477      0.16966884516628     -0.66751419225622
  N       1.33069625426505      0.69481416399277      2.14351492510871
  C       1.49632856115914      1.86732849450184      2.77788295573828
  C       2.08781565408931      1.96309641163882      4.03124409614438
  C       2.52424023643510      0.79094101045256      4.64192042508946
  C       2.35577619480880     -0.42619741947933      3.98443511578960
  C       1.75197235080569     -0.45049280343262      2.72792902281156
  C       1.54183137017285     -1.69875799956415      1.95842384742655
  C       1.90608638394668     -2.95470828393161      2.44271613605056
  C       1.68376046065875     -4.08363031993347      1.65673988708847
  C       1.10381950932646     -3.93474829823859      0.40041900478668
  C       0.76719923288009     -2.65378118888253     -0.02055339603882
  N       0.97698949687988     -1.56446154366382      0.73649505009678
  H       1.14792495406315      2.76399350489461      2.25180980406753
  H       2.20332153429848      2.93803101801843      4.50921987421046
  H       2.99779308588673      0.81939591150054      5.62688036622452
  H       2.70042865170707     -1.34586472158762      4.45816795789989
  H       2.36171292855135     -3.06532007133856      3.42714595067117
  H       1.96673316313583     -5.07264173971245      2.02686299211164
  H       0.91813317213558     -4.79070642146859     -0.25181548333309
  H       0.32443103423256     -2.48743490227527     -1.00904067876636
  C      -3.46417067547431      2.04941036022043     -2.06133653097031
  P      -3.51560129529207      0.82489594893858     -0.75578791138310
  O      -2.06122091002388      0.64439722765306     -0.16181179480126
  C      -4.61633250451047      1.36756872184234      0.54460011379412
  C      -4.07217872120922     -0.74176026871899     -1.41738703281596
  H      -4.47585104367324      2.21622443894393     -2.46415078720563
  H      -2.81138899349373      1.69644800151617     -2.87524620426336
  H      -3.07363254598096      2.99912591495472     -1.66300249266556
  H      -5.63686823113356      1.48535532391049      0.14724723998083
  H      -4.27150095796938      2.33438391038442      0.94196868764392
  H      -4.62923261667597      0.62256053921139      1.35475569777560
  H      -5.08230605819443     -0.63432975755782     -1.84341522034704
  H      -4.10017995411574     -1.49449472595210     -0.61479661509368
  H      -3.38203406358504     -1.07308721330799     -2.20902852026381
  Cl      0.45591076586944      3.27831631914745     -0.43311846890999
