59
Coordinates from ORCA job orca
  Cf     -0.98598225092890     -0.11664073694933      0.08574083343736
  C       0.02680317646700     -0.69490700069737     -3.09305816621175
  C      -1.42058384531258     -1.17043206280618     -2.88996675308618
  O      -1.88951599653735     -1.98062054297322     -3.66409318637644
  O      -2.00099607301544     -0.66874194455552     -1.85119163149595
  N       0.49065460184929      0.13848081562988     -1.98798753767655
  H       0.09482894490282     -0.20075081425166     -4.07842277183442
  H       0.65174136367084     -1.59928145277142     -3.16439005044626
  H       0.30344408835804      1.12767497807195     -2.16587324530806
  H       1.50566836335391      0.08173538854248     -1.86190052626245
  N      -1.00047327986001     -1.45526605529765      2.26204691800730
  H      -1.32155634954442     -0.71042802171138      2.92550329186030
  H      -0.13821272472868     -1.84033481917476      2.64589064583593
  H      -1.69312410405932     -2.20251866220640      2.30496527821837
  C      -1.22457195872791     -4.72543785437914     -1.19298640344680
  C      -1.40916716475723     -3.39765946744028     -0.80125443967176
  N      -0.36645746463074     -2.61572201923756     -0.51819062007929
  C       0.84867115475835     -3.14943989979008     -0.64825435173304
  C       1.01892790811135     -4.47355523518735     -1.04561567824321
  N      -0.01692803681631     -5.26345711477751     -1.31091881984993
  H      -2.08804073413138     -5.35678919205615     -1.42742999538959
  H      -2.40420212432995     -2.94311344318839     -0.74908731943756
  H       1.70853454714956     -2.50212656440543     -0.44742768191893
  H       2.02321223802090     -4.89900930476969     -1.15343963776138
  N       1.43044541662470     -0.30452129013975      0.99953794736456
  H       1.76285946439777     -1.19389032336337      1.37192446836607
  H       1.36095957908983      0.34552538175837      1.78742147751517
  H       2.15091136451746      0.05994716490332      0.36248955864794
  C       4.57279298847165     -0.14180995059434     -0.65685668369921
  C       5.18838840819061      0.84597563007265      0.34103956957187
  C       4.53258789070924      2.19125875494395     -0.03511618200591
  C       3.67956524509472      1.84551564237762     -1.25226356362573
  O       3.36658943120512      0.46356822918161     -1.08479715128012
  H       4.33431917673731     -1.12944720021007     -0.23064859534916
  H       5.23722777158435     -0.29700703449299     -1.52873239977707
  H       6.28526082610467      0.86540507924415      0.26050036534819
  H       4.94228842507582      0.56453983181305      1.37642578910866
  H       5.26653439412767      2.97865073943760     -0.25929063395770
  H       3.88384122863124      2.55820650980555      0.77377274655579
  H       4.24700544034954      1.96999827009817     -2.19510052026637
  H       2.74125439964051      2.41309601396208     -1.31220500147773
  C      -4.84001343969079      0.10189242696882      2.96690817887956
  C      -4.02266660377164     -0.31704939788842      1.85283179503486
  N      -3.35411766270321     -0.68770944057128      0.98189321194446
  H      -5.60818273450990     -0.65388145777319      3.18744177693709
  H      -5.29346213647666      1.07490691152074      2.73385674017215
  H      -4.14928410610696      0.24731440741414      3.81430494823545
  N      -2.61462225311918      1.74194268900144     -0.42590364027976
  H      -3.38629842352554      1.24394590174841     -0.87090066314454
  H      -2.38373339191846      2.53298839322919     -1.02572524689665
  H      -2.92285690730044      2.11285716993400      0.49342108257123
  F       1.46461309635965      2.72015092364771      1.37502509783923
  P       0.16738929033899      2.45214495371232      0.43490964980288
  F      -0.72142605386131      3.74760956781172      0.77399680141272
  F       0.90578216988213      3.32266065944026     -0.82853411192884
  O      -1.88947925466162      0.69341276235390      3.77336838025185
  S      -1.76153783249167      2.03080515196386      3.07458765183000
  O      -3.01055636850820      2.30567417374325      2.27980081799893
  O      -0.65250197866390      1.55271515784016      1.80521048387685
