37
Coordinates from ORCA job orca
  U       0.71304908773031     -0.59326493524729      0.10179326455554
  S       3.41117901887152      0.44710179537045      1.23133978423541
  C       2.41719378261611      1.44385346580209      0.38258219891251
  N       1.54501724532408      1.90136253836472     -0.27505127638810
  C      -2.08635012507408     -1.17280727424019     -1.70844203961529
  O      -0.80899173897153     -0.97031515423590     -1.18410895302323
  H      -2.21457574375422     -0.59039446592562     -2.63780109906301
  H      -2.84272369915025     -0.85287343191234     -0.97354146346365
  H      -2.24029477723467     -2.23969194157742     -1.94605971819954
  C      -2.28979433092137      2.73698454773449      5.56765762541156
  C      -1.00923761997711      2.37804811881632      5.14708145753710
  C      -0.84148993916735      1.62824130168816      3.98544302178507
  C      -1.95846357592524      1.23462481399688      3.24146681918639
  C      -3.24111935493180      1.59600359202135      3.66710104425225
  C      -3.40643948543880      2.34548387165085      4.82686742928280
  C      -1.82803316329112      0.43139242396870      1.98892551870591
  O      -2.79057281638603      0.07708966440361      1.34373258162620
  O      -0.58414831978971      0.14157588533958      1.64521789392755
  H      -2.41906110142751      3.32680452153252      6.47947702788111
  H      -0.13613035344288      2.68577118023740      5.72860986084486
  H       0.15526105606204      1.34113857028460      3.64246343263743
  H      -4.09332609395884      1.27360337688462      3.06389567953240
  H      -4.40956491487716      2.62765738244205      5.15771591416314
  C       1.45784415079432      0.21755611278028     -3.43753319928457
  C       2.77918209789710     -0.10595838941411     -2.79179304272646
  O       2.55170485375605     -0.83483946272763     -1.57969774986426
  H       1.62794292568022      0.72109609905857     -4.40083710204243
  H       0.86643116537136      0.89759533290925     -2.80339455232209
  H       0.87179227967353     -0.69588451131141     -3.62056766793472
  H       3.33101831625582      0.81985556389622     -2.55381035826964
  H       3.40650333106326     -0.72473234680466     -3.45612127656769
  H       3.34155767307269     -0.78567331426468     -1.01197872965999
  C       1.76124720098287     -3.53145780983962      1.52101534543482
  O       1.26845200623794     -2.40056192024820      0.88592152269109
  H       1.02205046128582     -3.93409361761587      2.23577195805228
  H       2.68528899504090     -3.29898851468639      2.08049443598666
  H       1.99410150600377     -4.32420306913140      0.78776441178244
