30
Coordinates from ORCA job orca
  Md     -0.13162104254970      1.18078724480718      0.22727386352371
  C       3.81553461742563     -0.83974446030655      0.49083893342945
  C       2.58276487536457     -0.23120802896796      1.04146751272878
  C       2.30416274970022     -0.22784858534877      2.41745696916059
  C       1.14772209756520      0.32117321961924      2.97772408172615
  O       0.22606345419954      0.87905995658286      2.24510895401980
  C       0.89388480485987      0.29621167294800      4.43810305956580
  O       1.76729213100278      0.30222599704067      0.18817582953943
  H       4.46873091270231     -1.24637107058074      1.27138832068680
  H       4.36352867872028     -0.08634875083640     -0.09947990638278
  H       3.53803178816613     -1.64260763905039     -0.21346466593681
  H       3.03144270832455     -0.68475410713106      3.08896354521932
  H       1.72334965358429     -0.14933112611023      4.99938681198342
  H      -0.02856426488311     -0.27530281273993      4.63797307886497
  H       0.71062582450819      1.32220816603858      4.79803622520934
  N       0.18313626173642      3.58962134190393      0.25656497278964
  H       1.01898525522721      3.83965730334667      0.79902605865794
  H      -0.57951571421882      4.11221624297004      0.70461330015673
  H       0.31634678553190      4.05211171628122     -0.65095465848309
  C      -4.84264134203823     -0.85446885046252     -0.19692912616755
  C      -4.13204223920023     -0.52196092351969     -1.35063057713918
  C      -2.86296767917678      0.01966850218515     -1.21620232403352
  N      -2.29129910930513      0.23484379816495     -0.01340333837711
  C      -2.98191845200670     -0.09086314474288      1.09981769991499
  C      -4.25607018099419     -0.63573023810720      1.04949540754907
  H      -5.84686882734795     -1.28167491225818     -0.26929218069389
  H      -4.55491142876649     -0.67915998754583     -2.34537887974096
  H      -2.28378179252735      0.28885172508770     -2.10781279892194
  H      -2.48976679873185      0.09240561209239      2.06167756278176
  H      -4.77923372687256     -0.88376786136025      1.97565626836910
