49
Coordinates from ORCA job orca
  No     -0.12507289027030     -0.20729311128281     -0.87956436542866
  O       2.06974330011079      0.48468660991867      0.38488974124920
  H       2.14190235605886     -0.50138270371986      0.30473198190009
  H       1.45221266184964      0.65326044599921      1.11894033416099
  C      -2.73020296319530     -3.57094316691006      2.35616890936096
  C      -3.45103880129220     -3.02640269867929      1.29762359191141
  C      -2.78391648355341     -2.20840171064511      0.38895737638068
  N      -1.48169645020325     -1.93388006842516      0.48566639830433
  C      -0.79146497919413     -2.45813844325388      1.50208986671288
  C      -1.37191571993652     -3.28058933980857      2.46231387340190
  H      -3.22183689419466     -4.21132792593865      3.09370988741605
  H      -4.51952338700864     -3.21844743659246      1.17849716223711
  H      -3.31322237447239     -1.74460475388876     -0.44976070656076
  H       0.27331343713711     -2.20205560722990      1.53467518579603
  H      -0.76521869112966     -3.68212771972441      3.27692082227716
  C       1.27197944049294      2.79207430513311     -1.73962213590939
  C       1.18349215761249      4.22088439757336     -1.20928436039876
  C      -0.04165672193081      4.16023191412229     -0.30324366831504
  C      -0.93516155245926      3.22304651621245     -1.08709922552434
  O      -0.04752464697905      2.23463718308859     -1.60779095287957
  H       1.95203233270104      2.17232607271224     -1.13285602219558
  H       1.57516970208364      2.74464834214586     -2.79893241790584
  H       1.01335498044950      4.93566970732829     -2.03151743234110
  H       2.10150181947399      4.52433867127016     -0.68496110328647
  H      -0.50390384877329      5.14057490223451     -0.11583644228845
  H       0.20501341642471      3.69593034282434      0.66594038622420
  H      -1.43281761796516      3.75226243871509     -1.92511114629465
  H      -1.70304125086530      2.72892580638277     -0.47385594287612
  O      -2.59007897628734      0.37925475890608     -1.36596107767493
  H      -2.75566593931550      1.10301519289097     -1.98086071028397
  H      -2.99391854087708      0.68317268526820     -0.51395770375209
  O       1.86099636965813     -0.37487323013022     -2.55627069731918
  H       2.55110230497545      0.27209582248997     -2.37420091703602
  N      -0.65341412962385     -1.72655723915087     -2.89809834639473
  H       0.16316342649978     -1.53081921703495     -3.48091229934438
  H      -1.48626933927786     -1.66521980695991     -3.48086792600398
  H      -0.57084560419646     -2.69472332894843     -2.58721365462502
  C       2.85325914045431     -3.63761688890439      0.45863968853063
  C       1.78100178821523     -3.22312417965648     -0.53637716239091
  O       1.58284855267820     -1.85666145799805     -0.55630699143117
  H       3.01566489630613     -4.72842176132825      0.45898685790726
  H       2.57267279026885     -3.33147595164083      1.48097594673664
  H       3.80858430073769     -3.14379781275565      0.21666827031413
  H       0.83958169784840     -3.76780683089634     -0.28374040662833
  H       2.07390200303648     -3.60394538835190     -1.54329452490380
  H       1.97322362193037     -1.07873043311796     -1.82057907424456
  S      -3.26693338139755      1.34180417190109      1.55038384316586
  C      -1.64819752083985      1.10100757440798      1.53693735799649
  N      -0.48317779176488      0.91302035144804      1.46265993225389
