43
Coordinates from ORCA job orca
  U      -0.46305798231849      0.35852664189695      0.14607257965117
  N       0.00794861417499     -0.13480865237201      2.52481617787439
  C      -0.78381999438102      0.39168793757886      3.46649107555203
  C      -0.60536586311514      0.14718885495189      4.82232986574307
  C       0.43675931986278     -0.69262168998114      5.20471261430825
  C       1.25474681406872     -1.25297580118574      4.22607106525452
  C       1.01752085517592     -0.95586895360357      2.88490580506398
  C       1.82626238250290     -1.50251999652215      1.77646957547744
  C       2.96771999409682     -2.27907046772154      1.97494856117892
  C       3.68912836359071     -2.73031150152034      0.87318073258513
  C       3.26115909173937     -2.38782027727717     -0.40741161166428
  C       2.11445688104133     -1.61563109188411     -0.53101715827407
  N       1.40839256520958     -1.19350388641373      0.52881398615876
  H      -1.60447798899847      1.03341272495248      3.12674435033751
  H      -1.27427212426398      0.60123225179717      5.55625026428141
  H       0.61141254128256     -0.91795910374967      6.26006598744437
  H       2.06472386585754     -1.92307191223900      4.51665644055909
  H       3.30567789417549     -2.52609883621566      2.98194048857066
  H       4.58588447519377     -3.33890016242677      1.01665901424216
  H       3.80573872734367     -2.70982438677797     -1.29730081915883
  H       1.74307346401332     -1.31866196228907     -1.51865578947009
  F      -2.13938402475684     -0.69211738809024      0.58832101484988
  C       0.71221631098469     -0.16753499238232     -5.17221353122750
  O       0.42135390537671      0.01216328500023     -3.77120291619829
  P      -1.06372060845090     -0.14495997641814     -3.17485956583712
  O      -0.72821090750729     -1.09778788431971     -1.80370874632432
  C      -1.13716625154736     -2.48603538132039     -1.79471696446473
  O      -1.02061463946337      1.18014679106019     -2.10176946970841
  C      -0.95174353027853      2.50571616648954     -2.66476845573329
  H       1.38285265179901     -1.02973011017848     -5.27986416091434
  H       1.21458679058708      0.73952568388688     -5.53171944845867
  H      -0.20857777304808     -0.33723043754793     -5.75196215215269
  H      -1.70860392758041     -2.66639186741400     -0.87444274380477
  H      -0.24209965646361     -3.12181600338351     -1.83427570468470
  H      -1.78015936820330     -2.68940584748084     -2.66455389465782
  H      -0.93969879924763      3.21602844479782     -1.82918843206266
  H      -1.83630536201344      2.69088903077318     -3.29262950240951
  H      -0.02691127290880      2.61295897122668     -3.24964211754164
  N       1.07263859134494      1.84644256342161      0.00553041134446
  N       2.04474990300607      2.57354333795915     -0.11109849239300
  N       2.94500096754145      3.24478353360706     -0.21821125837106
  C      -2.67052685416600      3.40615902695130      1.03304755645174
  O      -2.00288804125706      2.51365332436442      0.79828536858288
