32
Coordinates from ORCA job orca
  Pa      0.69154342591639      0.69618441185254      0.31741155073139
  C       4.61999642316856     -1.28837105672227      0.68152577967583
  C       3.50216718879490     -0.57103818443714      1.26943694910301
  C       3.31504851236804     -0.27771603868194      2.61726075941037
  C       2.20909945951688      0.40008082725760      3.14211375414254
  O       1.23126484369966      0.77859748953597      2.27628118115998
  C       2.00643021398214      0.71571493559031      4.54642351313063
  O       2.52571637020300     -0.14587115818961      0.40395445427639
  H       5.42590991839878     -1.46229070593489      1.40883417880345
  H       5.00489748620798     -0.77143730422666     -0.21894255291706
  H       4.26459357212819     -2.27794657093821      0.31142253728057
  H       4.09943582390644     -0.58761491254858      3.31662916981568
  H       2.93787489457968      0.64138795620806      5.12718051668834
  H       1.29675743469164     -0.03245693181148      4.97380024023277
  H       1.52024666872291      1.69702994281289      4.68443171525136
  C      -2.57427980979669      1.56419420945585      0.81085591154935
  C      -3.63354082367080      1.15856255910341     -0.21395457508526
  C      -4.99882010685331      1.64144801361430      0.05851337478077
  C      -6.15934158917375      1.18448060029609     -0.60692050652073
  O      -1.21450802523811      1.16447387540562      0.40433909407962
  H      -2.74384874797416      1.07966473694038      1.78555381920585
  H      -2.53132055792840      2.65575333203658      0.95138630263559
  H      -3.66707217208811      0.06925950561986     -0.41300696634772
  H      -3.43303513667651      1.60922543302739     -1.21830111816468
  H      -6.79991238791473      2.05583719754599     -0.90481586487654
  H      -5.14483792760890      2.43617146550005      0.81390696113771
  H      -6.05864330237437      0.41958688441970     -1.38746934647603
  H      -6.85039343614262      0.84483481461188      0.22222282037114
  N       1.54917058337281      2.93005655882108     -0.26954415128991
  H       1.22360085221484      3.31662463165223     -1.17340765656339
  H       2.58029597809087      2.97629802124441     -0.34377594717703
  H       1.31910437347678      3.67557546093835      0.41035410195577
