48
Coordinates from ORCA job orca
  Np      0.15521521240074      0.27261069354066     -0.18815109641646
  C       5.14645626115124     -0.56723077100682      0.40025713662540
  C       4.29584150277625     -1.00419606958176      1.41779540955842
  C       2.92870139421028     -0.82024535446851      1.27963991537507
  N       2.40740422909648     -0.22858537195518      0.17827540898577
  C       3.23077263296393      0.18933629548929     -0.81152536077394
  C       4.60427983096381      0.04128145179512     -0.73712843850589
  H       6.22918209572094     -0.70159670724090      0.48963401476584
  H       4.68604545796393     -1.48465508614469      2.31892773727555
  H       2.22797606344010     -1.14161156033592      2.05724394714074
  H       2.76699861713722      0.64549624142931     -1.69881721174244
  H       5.24018035554538      0.39014971074714     -1.55446407568173
  C       0.90003412502691      4.26453532193667      1.66206268767851
  C       0.62556738034081      2.94298397273914      1.29953470963212
  N       0.61330112627175      2.58741035013329      0.00172365975658
  C       0.86856843048754      3.52058465014450     -0.93297523740481
  C       1.13925205558573      4.83366981038501     -0.54090938864495
  N       1.15211764916029      5.18418618122448      0.73971591910454
  H       0.91155309236882      4.56915957619026      2.71526965106202
  H       0.41174338257667      2.17385380348446      2.05953240974429
  H       0.85751127623330      3.22668497357551     -1.98876870110323
  H       1.34867287286790      5.60912926851443     -1.28751798115865
  C      -3.90216967179315      0.83535073454546      1.44447001686091
  C      -3.21644294981989      0.12565687876229      0.31958293081092
  O      -2.03897656547254      0.91761563851036     -0.16915378529741
  H      -4.76401436483448      0.22499685124839      1.76106126850151
  H      -4.30756961491682      1.81126620127202      1.13105115893336
  H      -3.24601816296225      0.95877162351516      2.31889903907412
  H      -3.85613754542205     -0.02527999168850     -0.56297792232863
  H      -2.78348311691053     -0.83740576676763      0.62951077980254
  H      -2.35187454497447      1.81293252624153     -0.39470201446323
  C      -0.84808905468624     -4.37738507594526     -5.44866978315232
  C      -1.03988293341982     -4.88428374144603     -4.15145193307029
  C      -0.85762451803788     -4.05982643537426     -3.06077026062041
  C      -0.47471836974429     -2.70390680508758     -3.26266677440083
  C      -0.28090738764175     -2.20525775878024     -4.58078408612196
  C      -0.46951718989331     -3.04397990142262     -5.66186304390391
  C      -0.28314139046350     -1.81746092678802     -2.18577709165754
  O       0.07095048260800     -0.59527327935458     -2.25569828145132
  O      -0.46216124413528     -2.14868516503779     -0.88802993285109
  H      -0.99749958981983     -5.03879298960832     -6.30806452218804
  H      -1.33260550035559     -5.92766364602625     -4.01067041012535
  H      -1.01147002287953     -4.48348657034458     -2.06183711564097
  H       0.01102255466302     -1.16283329697325     -4.72855939506492
  H      -0.32587624841253     -2.67197660952943     -6.67925190535935
  H      -0.71638133097879     -3.06892217169605     -0.68997140756264
  C      -0.31351017188381     -0.48360605713785      1.95566959425535
  N      -0.61367659210278     -0.91301564568241      2.99999976174897
