29
Coordinates from ORCA job orca
  Ac      0.07053226697558     -0.19887847814757     -0.46407626210987
  N       2.43311367154617     -0.81034329556519      0.76395434958069
  C       2.37492105059763     -0.52873727138482      2.22027537103075
  C       1.66858191224880      0.78333389769299      2.48204082105777
  N       0.27125176679822      0.72977489307663      1.99713654301409
  H       2.79956715818164     -1.75900884582029      0.62965930565336
  H       3.16060042942005     -0.21242317471001      0.35222275308124
  H       3.38328545076719     -0.50363231813688      2.66511417566603
  H       1.83848265246823     -1.35908495211281      2.71138889771214
  H       2.18208896647829      1.60714386839372      1.95680729902895
  H       1.71413737735896      1.02160040509785      3.55738000451484
  H      -0.12706782764556      1.67538424043136      2.00598779172658
  H      -0.30407773935158      0.20167105275309      2.66275569140722
  Br      0.20504952955226      2.41552599639533     -1.29450207603590
  C      -7.18195755322188     -1.27133126945909     -0.16847785260654
  C      -6.54829263377351     -1.80649823169812     -1.29653406451642
  C      -5.17273621544916     -1.71361951960058     -1.41958463013182
  C      -4.42001349631510     -1.08333020423975     -0.40412702503832
  C      -5.06591542884798     -0.56064897971316      0.73598740736820
  C      -6.44417552591019     -0.65246996605958      0.84504836833745
  C      -2.99494897179230     -0.94085029387506     -0.49416504622816
  O      -2.23840065957519     -0.52018302583889      0.40025645778967
  O      -2.33427596648756     -1.25831354680157     -1.62853064534466
  H      -8.26955733228561     -1.34180075712246     -0.07964271238085
  H      -7.13605129337619     -2.29859269311553     -2.07454027044861
  H      -4.70419147617539     -2.16439724554357     -2.30228422093144
  H      -4.47373082746140     -0.07558147004398      1.51497785763932
  H      -6.95304028865983     -0.24012371679533      1.71917199475452
  H      -2.91347899606349     -1.50998509805642     -2.36850028359056
