34
Coordinates from ORCA job orca
  Cm     -0.57748494897224      0.35406318530849      1.33405679453165
  C       2.96648055601824     -1.28182584924541     -1.29823970479378
  C       1.79393155657374     -1.14510045992605     -0.55665354024017
  N       1.47094184278815      0.03097997945261      0.00585710517437
  C       2.31351728686410      1.06219468324881     -0.17188495329352
  C       3.48130384699431      0.90117362292604     -0.91911184791316
  N       3.79802781975774     -0.26174782077513     -1.47421396047830
  H       3.22968064201731     -2.24205158150085     -1.75564352161568
  H       1.11520630917153     -1.99485363039315     -0.41962370434391
  H       2.05129409580730      2.02168773570544      0.28522687393914
  H       4.16918468768672      1.74138760743081     -1.06524758840214
  C       0.23323919817925      0.40221988865147      4.65091290025655
  O      -0.20384914952878     -0.42734881818217      3.54068947547396
  H       1.19605582094290      0.03401165950292      5.03079961389701
  H      -0.52847171947169      0.39154865313271      5.44229884145948
  H       0.34731748099292      1.42135698430823      4.26095580707078
  H      -0.35586003483306     -1.32875973802044      3.86405903739308
  C      -6.62844547746694     -0.09594139436699     -2.59979075258549
  C      -5.50506720471588      0.29625423699728     -3.33740517508603
  C      -4.27404186444544      0.39792285651218     -2.71184702215228
  C      -4.16166772722440      0.10342501444136     -1.33598628272310
  C      -5.29709470249488     -0.29804291973948     -0.60279510332851
  C      -6.52544123261204     -0.39283449852557     -1.23794762211639
  C      -2.90688008437448      0.19328771893434     -0.63882074765687
  O      -2.71208731555934     -0.15330786575700      0.54263597458722
  O      -1.80683511510021      0.67497483351238     -1.22846092581182
  H      -7.59843639817782     -0.17262838259248     -3.09864405133873
  H      -5.59869587601643      0.51735072403607     -4.40290347575086
  H      -3.40964482446455      0.68736289517418     -3.32074888885953
  H      -5.19687450350190     -0.52368285877567      0.46119389745068
  H      -7.41029503358481     -0.69854705114208     -0.67536593148795
  H      -1.95453048201487      1.02654809055888     -2.12223394562354
  O      -0.43559138979135      2.31155127691463      1.70221007208770
  H      -0.52128605944286      3.25927122219360      1.85187235228013
