36
Coordinates from ORCA job orca
  Np      0.15960571685432      0.02090313437057      1.64258194153872
  N       2.39797573105992      0.07088482812318      0.69607811018366
  C       3.17440749636068      1.15323905016418      0.88279053295928
  C       4.44855406554542      1.25628957201436      0.34028206745117
  C       4.92698588455574      0.19882728160907     -0.42924383641398
  C       4.12186901725695     -0.92238021022842     -0.62876704646347
  C       2.85565864319942     -0.96433337177403     -0.05298585900167
  C       1.92628582835112     -2.09992044906150     -0.20283780731743
  C       2.22684193405635     -3.27499557962074     -0.88487784795054
  C       1.27074622997038     -4.28908515431524     -0.95128277059260
  C       0.03377701842294     -4.11382384477845     -0.33407580130511
  C      -0.20064960347520     -2.91831189078527      0.33054312412420
  N       0.71785593213708     -1.93998658831216      0.38836769956249
  H       2.75295591585406      1.96986353444289      1.47925417131526
  H       5.04731743965668      2.15243559477144      0.51713188621636
  H       5.92297443767384      0.24388002966957     -0.87852679702755
  H       4.48721665550362     -1.75198637419015     -1.23578229008604
  H       3.19909162322424     -3.41400861254341     -1.35981956962254
  H       1.49728110130090     -5.21807877119484     -1.48185495726462
  H      -0.73578384427501     -4.88836316778589     -0.35895414046960
  H      -1.15583452048290     -2.74329560207637      0.84309488053421
  C      -2.14311838700847      5.95686104568041     -0.79197560009154
  C      -2.67360415430058      4.75273671218284     -1.27154956980483
  C      -2.19722562768209      3.54922159771252     -0.78114037470693
  C      -1.17912570272283      3.55943737253506      0.19830399268903
  C      -0.64828681941556      4.77654318576961      0.68170801688737
  C      -1.13488860046445      5.97112103908311      0.18030507895317
  C      -0.68728318983517      2.32497639354072      0.71205725164863
  O      -1.13505647358375      1.15903751442804      0.32616043087935
  O       0.24355464599278      2.23325786978714      1.61217393887026
  H      -2.52555052242950      6.90457192517219     -1.18154434331763
  H      -3.46257333332047      4.76513417059785     -2.02669865597644
  H      -2.59952650768910      2.59792620879255     -1.13721605920513
  H       0.13166880477257      4.76480693717031      1.44672861034118
  H      -0.73920763986031      6.92241274745390      0.54291962751060
  F      -0.73150919520369     -0.90209812840510      3.16865196495269
