34
Coordinates from ORCA job orca
  Cf     -0.68221541583043      0.78343242976133      0.44612167609282
  C       2.50222585196937      1.28844133269898      1.11068924016956
  C       3.81807389753405      0.82464938225631      0.53645436812390
  C       3.65148892882843      1.10467197543781     -0.95213989448577
  C       2.23007266187621      0.65889916383307     -1.21401264117976
  O       1.51254920435494      0.95582687505669      0.04415822526122
  H       2.46205044014336      2.37992714892848      1.25158385528726
  H       2.18356084915872      0.77911350763428      2.03138722722937
  H       3.97097131624672     -0.24979258741801      0.72736190784133
  H       4.66380946687112      1.36660023015317      0.98419504702870
  H       4.36797342708944      0.55551555688527     -1.57992429247365
  H       3.76964831965828      2.17810731217991     -1.17003443392692
  H       2.16125178345019     -0.42844115388136     -1.38295094998613
  H       1.72587791880227      1.20029893746479     -2.02928419644031
  C      -0.37080233110432     -2.16889082529038      0.36189174742490
  C      -1.75541675695572     -2.18798957887841     -0.22804901080463
  O      -2.15876075648845     -0.79418279986252     -0.41022674491061
  H      -0.00123247854116     -3.19598348953037      0.50837119417202
  H      -0.34194668768529     -1.71478110825905      1.37456392228107
  H       0.36600085375066     -1.69356801785809     -0.31750771436833
  H      -2.47828862720409     -2.67280710089449      0.44521452997178
  H      -1.77849972698853     -2.68440559909458     -1.20950639173733
  H      -3.03874502662748     -0.74430963042369     -0.81745664784373
  C      -0.48445452440770      0.49131272097654      2.69895679237546
  N      -0.30393984234325      0.34656880620815      3.84258076159044
  C      -3.11950303662338      2.30360952888328      1.16439850198226
  C      -2.28824842869776      3.53219162765726      0.90677157465346
  O      -1.01368738071922      3.06389130458610      0.37133886684122
  H      -4.11841403353632      2.57823354332483      1.53812224469765
  H      -2.68981686897314      1.66052709333208      1.96182064573518
  H      -3.30883217782930      1.73461371842604      0.23106039217620
  H      -2.09372629006685      4.09393996066729      1.83285342219228
  H      -2.75350194684895      4.19650010997829      0.16338072018585
  H      -0.42052258226246      3.80717962506093      0.17641605484321
