52
Coordinates from ORCA job orca
  Np      0.49371120589330      0.66052757114613     -0.46327932808424
  O       0.57523743740944      2.56710300998480      0.97592852488558
  H       0.62832686807539      2.39987316621427      1.95412145129714
  H       0.99631057589526      3.42568832892960      0.80501859180228
  C      -0.18661386147229      0.42117180638441     -5.41850935712397
  C      -0.09988973683730      0.47971448031050     -3.98381322249280
  N      -0.02658111331468      0.52985202101545     -2.82650640285327
  H       0.47770017715044     -0.37239398946269     -5.79964925998844
  H       0.12779532584209      1.38724562699159     -5.84855514190246
  H      -1.22240933574704      0.20596596359170     -5.72906328200286
  C       2.28488124996594     -2.00291847397995      3.96815389350807
  O       1.14931011267168     -1.29498598075254      3.39829065633073
  P       1.19047804657565     -0.07365606856132      2.39255235484896
  O      -0.30652746040430     -0.31765074135427      1.59780689165256
  C      -1.50736093940821     -0.80562838620895      2.24867811614624
  O       0.84566305123478      1.24655100645235      3.26885689706760
  C       0.41410317952282      1.32394448901803      4.65771021991781
  H       1.89744963386515     -2.97410271250082      4.29652186195031
  H       2.67000072128952     -1.44156779802454      4.82973879918387
  H       3.07012097522631     -2.14370097947842      3.21206184746360
  H      -1.86211348054333     -0.06049974484154      2.97543642939434
  H      -1.27870230525700     -1.75395188038704      2.75349775864845
  H      -2.26465490774618     -0.96403749566862      1.46980376901676
  H       1.15596555288241      1.92197313466890      5.20194508849573
  H       0.34376045036088      0.31571192124546      5.08619285021130
  H      -0.56501576390594      1.82051508858116      4.68217372011384
  N       2.35606146465840      1.26775154571552     -1.15286651059874
  N       3.47021947857717      1.67917534419340     -1.47745173417196
  N       4.48741310643887      2.04561642466875     -1.78375093615465
  C      -3.05516220395282      2.28646535441573      0.63099923415700
  P      -2.26946894531651      1.64650980386253     -0.88601675541576
  C      -3.45001588980406      0.43250231981113     -1.56585213443343
  C      -2.30083327243177      3.05574067815418     -2.04363822739560
  H      -4.04226346718294      2.71312385023851      0.38672966458535
  H      -2.43300778704256      3.07831952413761      1.07518170622061
  H      -3.20086809425162      1.48385860516451      1.36914773349544
  H      -4.42346017347142      0.91895167894657     -1.74491579634803
  H      -3.61037994067069     -0.39700751232491     -0.85898845797043
  H      -3.08273533923489      0.02462175140230     -2.51972674869677
  H      -3.33609526208440      3.41945770333788     -2.15338996010541
  H      -1.92665513740068      2.75750068506855     -3.03356722589366
  H      -1.68450178589647      3.88564423822717     -1.66388960892126
  C      -0.08825273269818     -3.78006400532914     -1.35990254582297
  C      -0.16187141746411     -2.42076740676861     -1.05952985341918
  N       0.95233902960308     -1.68193522558525     -0.94279849479451
  C       2.13697347893092     -2.28407249742408     -1.12430563598104
  C       2.18814202302258     -3.64904901119099     -1.42244637965461
  N       1.08480597940856     -4.37688146174518     -1.53648350319817
  H      -0.99401150290378     -4.38980566915984     -1.45739731824559
  H      -1.13276859131093     -1.92390960360417     -0.91652554070461
  H       3.04324314422831     -1.67848728382592     -1.03530006817869
  H       3.15030817902517     -4.15240319369990     -1.57342862984045
