38
Coordinates from ORCA job orca
  Fm     -0.27202665389504      0.28863429774157      0.01236668141567
  C       2.58504130695356      0.53152231258340      1.65111340979223
  C       1.54677882013569      1.32064416002207      2.47821120711830
  O       1.95348756742939      1.96639500258380      3.43870306740883
  O       0.35181111868880      1.23785882190197      2.03996964149464
  N       1.94638071097901     -0.47346446776678      0.82959383272043
  H       3.36044721858564      0.14571756510573      2.34054793024770
  H       3.06311729366924      1.27233715389910      0.98957288426328
  H       1.64877769316400     -1.30193947353550      1.34902541527105
  H       2.45840004996489     -0.75791249124045     -0.00136098903355
  N       0.56773815518354      2.78144294716067     -1.30224005027923
  O      -0.60507794489443      2.34487226092265     -1.26126432127965
  O       1.38456139773527      2.08213156492317     -0.68336848676843
  S      -0.78949373036439     -2.25528263732282      1.49562409247585
  C      -0.27559103084968     -3.53786566380325      0.56148678089893
  N       0.06910155831855     -4.47423029475514     -0.05859421131872
  C      -0.73603145547536     -2.33164904094980     -2.99199944433521
  C       0.33146880217319     -1.24445354659040     -2.93342570460592
  O       0.48363479497865     -0.72471985897170     -1.68268584880935
  H      -0.85887607974938     -2.72442634441423     -4.01996066200828
  H      -1.69666415713665     -1.91733313737303     -2.64457447268414
  H      -0.46863501302628     -3.16378709185881     -2.31953590604322
  H       0.06498181273931     -0.45097265322530     -3.67672190283343
  H       1.29094770780456     -1.68067785338223     -3.31543668536168
  C      -7.32780098860392     -0.47998738153134      0.51615824079166
  C      -6.59555118659183      0.03263790554804      1.58903318822325
  C      -5.22325563765422      0.23927574177427      1.46132910138009
  C      -4.57629978646901     -0.06418304514040      0.26153888832269
  C      -5.31006642617534     -0.57849678860651     -0.80949553534254
  C      -6.68244357591162     -0.78536475555489     -0.68379102649465
  C      -3.08749924641549      0.15133527861263      0.12795214468129
  O      -2.54227686502439     -0.15108766699156     -0.95926620739763
  O      -2.46847132893565      0.61383618158158      1.11466122999721
  H      -8.40548556586813     -0.64653155257861      0.61724484210640
  H      -7.09990692749644      0.26786388133733      2.53202998699873
  H      -4.60918945124665      0.63190042896073      2.27652494552566
  H      -4.76359787086395     -0.81046763052372     -1.72770495649795
  H      -7.25453508585536     -1.19247212854219     -1.52396110004030
