42
Coordinates from ORCA job orca
  Bk     -0.85468920189574     -0.35622083323355      0.20594329957823
  N      -0.50086328084997     -0.72593791745513      2.63222637994932
  C      -1.51146416330157     -0.52885250835863      3.47904713053074
  C      -1.35644162556764     -0.58279138993767      4.85969103902996
  C      -0.08926681309229     -0.85903527789189      5.36263092397246
  C       0.96214064190152     -1.07790928323312      4.47767892195373
  C       0.72643175004955     -1.00706141793037      3.10257951549165
  C       1.78433562343966     -1.26537775328210      2.09390231269423
  C       3.09457283246541     -1.59069141250068      2.45242204482900
  C       4.03011039341399     -1.86198207268065      1.45910078272276
  C       3.63882248872623     -1.80963747346959      0.12538155874379
  C       2.32006223858454     -1.47163141985988     -0.15481076970807
  N       1.42287854578342     -1.20165393202106      0.79743927412510
  H      -2.49468503559657     -0.33207273539622      3.03518721140354
  H      -2.21256064733521     -0.41722269310196      5.51623371052271
  H       0.08285978836959     -0.91255611431794      6.44047794531727
  H       1.95432394360956     -1.30750612196113      4.86642646644471
  H       3.39130620930534     -1.63972361181795      3.50008155903793
  H       5.05712001511715     -2.11944254817121      1.72983537824088
  H       4.33535322048262     -2.02672122207979     -0.68653854666561
  H       1.95628172153375     -1.42679861070392     -1.18678053167746
  C       0.53268601082009      3.86987981667226      1.41336679177312
  C      -0.31518148839612      2.88241854320030      0.67707644146532
  C      -1.34231713861750      3.32529943293592     -0.17163334808658
  C      -2.16596612895253      2.46322972863083     -0.91018574567147
  O      -2.05588189024611      1.18970865207928     -0.87108265409719
  C      -3.23485449282368      3.00901231742964     -1.79940701307385
  O      -0.04381173276319      1.64948776397376      0.86990854141191
  H       0.25205428296803      4.91036211604128      1.20854014623256
  H       1.58872437388176      3.71482847620498      1.13949753438742
  H       0.45405830502099      3.67567317380790      2.49521734357947
  H      -1.50335504918905      4.39915663488975     -0.26807749585784
  H      -3.26955239709873      4.10530390146038     -1.80124569109551
  H      -4.20968295888292      2.61040897929313     -1.47486245462203
  H      -3.07404814193581      2.64469237865771     -2.82675734697160
  I      -2.68565161216230     -2.65960961937353      0.24651233123270
  C      -0.56996082684208     -0.58116241929653     -3.24592459398678
  O      -0.37025879742108     -1.24342930968765     -1.99385184516236
  H      -1.62144760708013     -0.27924031728604     -3.36549410683535
  H      -0.26557621841889     -1.23922250909491     -4.07286903129930
  H       0.06673866395189      0.31338173923364     -3.24934943258164
  H      -0.90534380095600     -2.05995313036769     -1.95843397727794
