44
Coordinates from ORCA job orca
  Cm      0.83943587739370      0.40301079698106     -0.93574124942870
  C       0.36759151149737     -3.51131758480315     -3.08327489491813
  C       1.27072862884134     -2.54730869632921     -2.36426095123985
  C       2.13909938614018     -3.03464018801520     -1.36586666515489
  C       2.84969775244732     -2.20581568665303     -0.47623458437876
  O       2.79816820407549     -0.94734983231858     -0.45496592450166
  C       3.69744148301195     -2.84998881449827      0.59573262729449
  O       1.14160403903206     -1.32995804044472     -2.66771746993675
  H       0.65090666170725     -4.56545451468261     -2.94340901539822
  H       0.32657653165985     -3.26180251759848     -4.15576590277056
  H      -0.63624811451346     -3.32057092472171     -2.64469880052020
  H       2.19927991147332     -4.11561920538586     -1.22075778314294
  H       3.83419711095401     -3.93173275092690      0.44828780581639
  H       3.19005016044938     -2.66249372144446      1.55987150628600
  H       4.67617794321873     -2.34590059881523      0.63668958009736
  O      -0.41064504683091     -1.15102655823270      0.13723451444367
  S      -1.69877714626017     -2.12070049705777      0.04134818002340
  O      -2.79759590142932     -1.38569352584445      0.76930193539680
  O      -2.02541883765191     -2.08523008040073     -1.48656336697535
  S       3.30844025698933      3.75267908757125      2.34363072201622
  C       2.59739406555504      2.67316546524091      1.34891670708477
  N       2.08003847759558      1.89160889259485      0.63029292878720
  C      -0.79721510257674      3.30281795920790     -0.27667342325880
  C      -1.86806013772337      3.48390301708768     -1.35744814900408
  C      -2.86809646500383      2.34155167643746     -1.07799419515714
  C      -2.30678358427938      1.67565590298027      0.17861738087494
  O      -0.91297777483094      1.94886510330984      0.11689425879081
  H      -0.98843809252406      3.94952295059169      0.60427064270186
  H       0.22632394922120      3.46270323427144     -0.64221201461939
  H      -1.39449825580428      3.35822895433976     -2.34255646716559
  H      -2.32691311619166      4.48605545740790     -1.31424285864525
  H      -2.85609787353209      1.61666669558500     -1.90478100064841
  H      -3.90137040694599      2.69565720675025     -0.92759522758100
  H      -2.46445684752740      0.58374402035922      0.26447635425080
  H      -2.71118217193800      2.15906276904218      1.09371810003960
  O       0.97442679685212      1.94951228908272     -2.50119612244995
  H       0.25257491708606      1.85241374808555     -3.13215558841611
  N       1.53929761018812     -1.06191243913233      2.42309046662265
  H       1.10069658601908     -0.35977892841595      3.02171817282329
  H       0.80243536713688     -1.30433510610033      1.74217942411687
  H       2.20758985876847     -0.52291817050672      1.86482899304889
  O      -1.16764503666961      0.03320173279196     -2.50511256235033
  H      -0.54019828772312     -0.43429073520551     -3.08247642904749
  H      -1.63235488735756     -0.79418784218491     -2.06579965380630
