46
Coordinates from ORCA job orca
  Pa      0.39342126976584     -0.15806831089049      0.42213908654101
  F       0.30316978062743      3.96333176972270     -0.91022482873257
  P      -0.17971462546300      2.42619669284876     -1.09081280399211
  F      -1.07136066195642      2.49232357479329     -2.43031122979943
  F      -1.56452718162569      2.84413042108166     -0.19862951781156
  O      -1.48010543341107     -0.52287908431413     -0.10066636116107
  S      -2.79995198925406     -1.89196634720087      0.00832374818579
  O      -3.85969580831946     -1.21447094788647      0.78450018346523
  O      -3.13034312104948     -2.07432510101505     -1.43022705800475
  C       0.78834575517772     -3.74463195784464      0.08510463569737
  C      -0.41304631291193     -4.57754462623992     -0.32894396687751
  C      -0.65236551581364     -4.13175806894974     -1.77852308933696
  C       0.03196846963966     -2.75947264441297     -1.87316499314548
  O       0.59249451984496     -2.51510015802946     -0.57702996953091
  H       1.73931646746128     -4.20545033409928     -0.25771709243077
  H       0.84975995246291     -3.52357593029324      1.16049851343253
  H      -1.27337226128412     -4.29462074074005      0.29733908166441
  H      -0.23931121869704     -5.66125675933654     -0.22449435799972
  H      -1.72594493089871     -4.02211267117492     -1.99152495955891
  H      -0.21037632210219     -4.84432231632248     -2.49531436263194
  H      -0.67995924688692     -1.94985469384846     -2.08175858311556
  H       0.83971492849163     -2.72071452366232     -2.62348473492872
  C      -0.00991074050975      6.05640007456752      3.91692585983817
  C       0.44825553808613      5.20548453594403      4.92582298965660
  C       0.52082402680014      3.83470185203250      4.69416073180109
  C       0.14898182840787      3.30527133250089      3.45468835992242
  C      -0.31729877178249      4.15519770300437      2.44793889644270
  C      -0.39569621309280      5.52787896072175      2.68485730183470
  C       0.25710424499926      1.81078857994974      3.24391927869476
  O       0.46767639041293      1.08934198268228      4.20816101399454
  O       0.11718227640967      1.43325941460797      2.02061955768904
  H      -0.06744538118165      7.13567157894874      4.09400707732867
  H       0.74916682078471      5.61584689267205      5.89566708574618
  H       0.86305416264206      3.13016690388368      5.45732074354148
  H      -0.63444981395220      3.73048463407488      1.49156002035097
  H      -0.75897742146295      6.18620555999608      1.89005900971088
  C      -0.79254089234303     -1.79981059031307      3.04997087688509
  O       0.09577689371848     -1.49542083759433      2.03158424191033
  H      -1.84219930390102     -1.62347109695033      2.74106305773241
  H      -0.58252513349433     -1.17572824829995      3.93821650922730
  H      -0.70970682770804     -2.86913292689975      3.34619053118675
  F       2.41832109220738     -0.03133087509369      0.92171327716293
  O       1.28452819300425      0.58971513384267     -4.01582351980488
  S       1.89763189006541      0.90324686447335     -2.70649898430133
  O       1.20619416383755     -0.08082247745194     -1.62260265316409
  O       1.32923646425481      2.30309780651512     -2.17109860331542
