30
Coordinates from ORCA job orca
  Cm     -0.27417157737579      0.25453413848153      1.93742005522842
  Cl      1.08998980577445      2.19627214518731      0.95829891721371
  C      -4.74000319587636      3.69453369677777     -3.00313410432779
  C      -3.47485630217373      3.46384773720853     -3.54256024132798
  C      -2.55167194861472      2.69417624712687     -2.84126660347771
  C      -2.89058343311921      2.15672602808032     -1.59303477624280
  C      -4.15353480406206      2.41167895997213     -1.04665014050186
  C      -5.07819499526381      3.17003563707774     -1.75501939649832
  C      -1.94373180348786      1.32764310830222     -0.80779440291342
  O      -2.06791224715495      1.16228268741172      0.39381931794977
  O      -0.95210984508997      0.73709222221058     -1.44470301031104
  H      -5.46642609872687      4.29445779751862     -3.55743708819076
  H      -3.20339850869614      3.89225850312252     -4.51024765644366
  H      -1.55099580497720      2.55594352464092     -3.26503959654311
  H      -4.39249547025322      1.99744572893511     -0.06484680371114
  H      -6.06824823998853      3.35765500209058     -1.33234239882975
  H      -0.99690897997635      0.89661136687672     -2.39699838755109
  Br      0.45677228061478     -0.39707761168288      4.54276688815783
  C      -1.44692328005924     -2.86593542559113     -0.75670321245742
  C      -0.11371392193917     -2.43233015542508     -0.17354617457543
  O      -0.27293124302305     -1.48982310642844      0.82323981829407
  H      -1.31371979872812     -3.62619130696514     -1.54379179301950
  H      -1.97289540097391     -2.00174775312161     -1.19542594167819
  H      -2.09045113391157     -3.29107445458561      0.03041403050820
  H       0.52509630045512     -2.03102536149531     -0.98881977974822
  H       0.41627019212790     -3.32273378869315      0.22188773143800
  N      -2.40521047290615      0.76576764009213      3.27692125345611
  H      -2.07666859092798      0.56609227703920      4.22672019877445
  H      -3.22506638781976      0.18520631023049      3.10027736595102
  H      -2.71310509384550      1.73817820560468      3.24329593137792
