25
Coordinates from ORCA job orca
  Cm      0.68756635973214      0.02750435694667     -0.41587932860622
  C       3.15986850480012      1.01584254385248     -1.18849558633420
  O       4.14637198130724      1.40479537796488     -1.53977071614471
  F      -0.34406600090295      0.42041550183342     -2.05757779270712
  C      -1.58574663905867      2.36717468199081      0.43394937241869
  O      -0.60837258545862      1.40454380733287      0.94504744310405
  H      -1.29864805204874      3.37711189374231      0.75580908508459
  H      -2.58311675755027      2.09967868101465      0.80690231111440
  H      -1.56633493656379      2.29343439094010     -0.66100819445245
  H      -0.64345525157556      1.40686346973657      1.91582177006332
  C       0.35891992914992     -7.10886751751793     -0.60539754550794
  C      -0.66550629768568     -6.27412246329975     -0.14670578950759
  C      -0.46916400403858     -4.90415856184049     -0.10359972293580
  C       0.76350498435552     -4.36247136785102     -0.53481061799719
  C       1.79558692902214     -5.21553924383137     -0.99230109159551
  C       1.58896635806451     -6.58247684174934     -1.02330163840868
  C       0.91615068102508     -2.94441941426689     -0.49760636766586
  O       0.10424588054586     -2.12848275529129      0.00012925007189
  O       1.98550994992213     -2.32070654514829     -1.02585065097959
  H       0.20057112030243     -8.19061099681995     -0.63744317175082
  H      -1.61791730751190     -6.70150728991345      0.17501442958956
  H      -1.25856430320792     -4.23590207146423      0.24705008913772
  H       2.77572578377984     -4.83523805524811     -1.30287157423905
  H       2.38189863438284     -7.25023939956711     -1.36727339195741
  H       2.60230503921288     -2.90692218154536     -1.49853056979404
