55
Coordinates from ORCA job orca
  Ac     -0.36210949444327      0.28291183714224      0.75363003062505
  C       6.14595103331914     -1.79955978308271     -1.81908769204785
  C       5.52613277586154     -2.55636025041456     -0.82379761827122
  C       4.25421722940311     -2.20770533412052     -0.37569568271245
  C       3.59564617183034     -1.10192526598006     -0.91936422943431
  C       4.22033590850744     -0.34479762432156     -1.91384900768352
  C       5.49173894782886     -0.69319945919640     -2.36349571399225
  C       2.22583408243076     -0.72019213522727     -0.42997216386072
  O       1.68538411354832     -1.44364811694854      0.45363114049588
  O       1.68012405068534      0.30068442479541     -0.91343710773539
  H       7.14599106229055     -2.07139363465692     -2.17028856722510
  H       6.04127868026981     -3.42004097199160     -0.39308846969445
  H       3.74583593410422     -2.77626907767544      0.40699810692876
  H       3.68201530781327      0.51799777915425     -2.31440864853900
  H       5.97956787984203     -0.09802093935750     -3.14105841989777
  C      -3.01983542364085      0.97466262710210     -2.04737877690854
  O      -1.91521022369810      0.49178851891084     -1.32856629502172
  H      -2.68807999555845      1.63647602778685     -2.86712223160882
  H      -3.67731622085016      1.54464113822855     -1.37145498516182
  H      -3.56483512288717      0.11895542654396     -2.48440272124323
  C      -1.52320002113405     -0.95176408062180     -1.39162319603375
  O      -2.16707897669788     -1.63043322459199     -2.14527934389830
  C       0.59621367308373      4.38212502961606      1.38546829655763
  P       0.32805402199236      3.33817825017596     -0.09908934177136
  C      -0.88544970215064      4.34083131278762     -1.04558621827051
  C       1.88328593841813      3.61489845076475     -1.03931203047669
  H       0.88370605613238      5.41498392908064      1.12411688072151
  H       1.38281336667640      3.91304892736960      1.99698491312352
  H      -0.33812275890630      4.38916879348238      1.96859681695296
  H      -0.55068870142605      5.38336515199313     -1.18332833756614
  H      -1.83807869152856      4.32555787884725     -0.49140895066410
  H      -1.05269272696159      3.87785305815431     -2.03111529666326
  H       2.09759555987598      4.68548810654024     -1.20082342833605
  H       1.81303752994941      3.09681572165886     -2.00826933419010
  H       2.70963245771192      3.14949551623502     -0.47962440434661
  C      -2.12029488427087     -4.47691699507187      1.99632668455021
  P      -0.83062398134533     -3.32046512723710      1.46430556470670
  O      -1.32828956782430     -1.88861314332756      1.63474604394452
  C      -0.40445623351656     -3.77188979254587     -0.22534081978054
  C       0.62700886618396     -3.64222534515330      2.47514233144888
  H      -1.78484463461246     -5.52240576147852      1.92048673174964
  H      -3.00352791233384     -4.32581830080166      1.35721040487422
  H      -2.39566395830041     -4.24801776698008      3.03662976339977
  H      -0.20262527879440     -4.85307896370888     -0.29046214880082
  H       0.49334509038191     -3.19336106519172     -0.49324202337284
  H      -1.21445008830738     -3.47323898018488     -0.91131729069674
  H       0.94497932002440     -4.69381842647791      2.40144556478288
  H       0.40688166718321     -3.37741219907326      3.51984875346268
  H       1.41651545907273     -2.97110865563466      2.09891082413840
  C      -2.88049339610811      2.90595730436174      1.73551856909572
  N      -2.13178961826745      2.00293620648104      1.61924940113121
  N       1.69370120603613      0.59392862344105      3.06790007031803
  O       0.70000655500124     -0.17353436167937      3.16598815779373
  O       1.73817292350773      1.33395435424025      2.04528501819877
  O       2.56235474459769      0.62041038783944      3.90547042690529
