32
Coordinates from ORCA job orca
  Cm     -0.66452941100516     -0.93319624526092     -0.26555721092751
  C       2.53030237293544     -3.91017466971395     -1.76484224288642
  C       2.02970854366393     -2.74977933969084     -0.96122774773286
  C       2.91624309058152     -2.01773570851282     -0.15177935111838
  C       2.53616960565463     -0.91833865879713      0.63354517976398
  O       1.35170708301920     -0.45661055524158      0.69849529570098
  C       3.55977674258961     -0.21052778112833      1.46941936258282
  O       0.79056606041212     -2.48996609871924     -1.06204005595857
  H       3.60628526037374     -4.08568762133554     -1.64114168818964
  H       2.30443558895728     -3.73031305233282     -2.82794006477112
  H       1.97226049727015     -4.81381490565434     -1.47197739539878
  H       3.96223528299449     -2.32445578213894     -0.13085182780476
  H       4.56328431815270     -0.64494708527255      1.37891510060725
  H       3.24047350345128     -0.23835292713417      2.52356485482175
  H       3.59106260599808      0.85069165346183      1.17468330347413
  C      -0.44556089079701      2.10780946446662      1.25143932862763
  C      -1.41292871001025      3.21172677138641      0.88156892219789
  C      -2.69329128129981      2.72961904318743      1.55492053577076
  C      -2.64765932306864      1.23220080264588      1.30152343222765
  O      -1.23917714148332      0.90968546454281      1.20523113955501
  H      -0.04626640168349      2.22493093924883      2.27427630916594
  H       0.39989177873866      1.98731295299888      0.55851209825226
  H      -1.53819004142594      3.24044273509344     -0.21332237297804
  H      -1.07837046694083      4.20145863156147      1.22491379263000
  H      -3.60502406183941      3.18845692203047      1.14624439399630
  H      -2.66372506964018      2.94063022605764      2.63664863057598
  H      -3.12337996842842      0.96962295972930      0.34029521757930
  H      -3.09620852054436      0.62027929211312      2.09832625496562
  Cl     -1.25472972913547      0.62877333004033     -2.19676187150824
  S      -4.49505678177811     -2.28651249529494      2.57348455039065
  C      -3.27126718225846     -2.15857146716343      1.56090611409522
  N      -2.35073735345400     -2.03595679517286      0.80742801229307
