39
Coordinates from ORCA job orca
  No     -0.92946634494347     -0.51408849673516      1.01536203166073
  C      -0.93184298472660      6.44499499502926     -0.74352597683407
  C      -1.38121952939619      5.48085458412298     -1.64795709379172
  C      -1.42800776671330      4.14044937944486     -1.27110531683556
  C      -1.02373748416933      3.75496255783531      0.00978826082608
  C      -0.58071883189633      4.72364712871336      0.91417438142981
  C      -0.53318206120223      6.06486740245682      0.53898371885361
  C      -1.05749246281875      2.29718125866149      0.40795754019065
  O      -1.46888815592027      1.47138159899565     -0.43872883593731
  O      -0.63524929471293      1.99567379901906      1.55587409815786
  H      -0.89484880382290      7.49816834068390     -1.03887623963828
  H      -1.69738734871253      5.77919570604074     -2.65230230258474
  H      -1.77535288377680      3.35622647732549     -1.94900431951297
  H      -0.28303562478889      4.38859846112492      1.91148445731543
  H      -0.18702117765608      6.82139448487772      1.25005560483186
  N       1.66118843501489     -0.05691034868833      0.45880757450612
  C       2.15742950050450      1.16056706477268      0.67102739941115
  C       3.45248894375990      1.52093723246886      0.30290246792394
  C       4.25225584586579      0.55973928163549     -0.30799779369917
  C       3.73379342071915     -0.71160681486898     -0.52584820581801
  C       2.41884197854701     -0.99110581493278     -0.12837444053021
  C       1.79919103991787     -2.33209676365368     -0.30824503807654
  C       2.43435795860051     -3.35342688840299     -1.02248491696518
  C       1.81278088887677     -4.59626547693383     -1.10880076206212
  C       0.59283915915886     -4.78345930226813     -0.47200146087282
  C       0.00776252447211     -3.70954033234993      0.20654572755324
  N       0.60355436517182     -2.51511778676699      0.26705915916138
  H       1.46710972478175      1.86595337600936      1.15205755192037
  H       3.81552648227212      2.53298200611087      0.49517579254757
  H       5.27696553911539      0.79377275901087     -0.61052787978089
  H       4.35217044375295     -1.48118378664152     -0.98993860126072
  H       3.39408601455844     -3.18504540023416     -1.51377414685378
  H       2.28669832763692     -5.40862489156843     -1.66806169506430
  H       0.07493451824381     -5.74508141155027     -0.49585374806940
  H      -0.96239686278996     -3.81103776700361      0.74303983361267
  O      -2.00734748466356     -1.50860917177982      2.74761017676104
  S      -2.96741003079714     -2.44628856231705      1.88131492935743
  O      -2.39483292530054     -3.84497785188455      1.94634700794838
  O      -2.64223705216283     -1.90458102575949      0.41714106021843
