44
Coordinates from ORCA job orca
  Fm      0.29235452039600     -0.56708219625075     -0.45776582563638
  N       0.55692325594425      1.91061957955814     -0.15219947758330
  C      -0.46677881586918      2.73635673587740     -0.36787867613930
  C      -0.48668847425254      4.05156439896478      0.08352273753754
  C       0.61139138503244      4.51454337638574      0.79859693444114
  C       1.68468688311658      3.65946422333014      1.01506454315761
  C       1.63438739024769      2.35535295993440      0.51716026057381
  C       2.76390110398919      1.40508486823562      0.66076443382099
  C       3.96727879537059      1.74881012691314      1.28038935862560
  C       4.99553695571137      0.81236121793030      1.32518805100028
  C       4.80499590887638     -0.43409895910339      0.74035337158292
  C       3.57362702439820     -0.70550786682560      0.14773389728212
  N       2.58666480034024      0.18883538721183      0.12436761339702
  H      -1.31612178842629      2.32605326305376     -0.92649260399311
  H      -1.35023954797413      4.68745472643117     -0.12093451008521
  H       0.63580477693333      5.53569316953772      1.18715936731619
  H       2.55334614802166      4.00806050271036      1.57332869163697
  H       4.11018944237128      2.73510815970801      1.72235681594619
  H       5.94285173615028      1.06382588119250      1.80915287919853
  H       5.59056729916859     -1.19217587867173      0.74078212123910
  H       3.34711909886642     -1.65928000208625     -0.34368577177784
  C      -4.04216202847171      1.61194039957770      1.36627302334002
  O      -4.33651345676724      0.66231953657902      0.35529746734266
  P      -3.23600372373396      0.44835405328217     -0.83074887867936
  O      -4.12991361436837     -0.63552533614675     -1.63502051708660
  C      -3.69474303682538     -1.06558746947701     -2.92435160063304
  O      -2.13130515277419     -0.53833117514147     -0.01892937312080
  C      -2.57731608041521     -1.77170737530445      0.57241739490450
  H      -4.92134576854966      1.66552479974559      2.02235071873261
  H      -3.86289383658776      2.61499633573030      0.93836577381016
  H      -3.16212441348186      1.32204339819760      1.96736182531403
  H      -4.46370858588624     -1.75493565294952     -3.29712814297737
  H      -2.72025215673564     -1.57907961992462     -2.86378839385198
  H      -3.61707302352406     -0.21164450255860     -3.61900387567442
  H      -2.41149237928827     -2.58999769917450     -0.14429428131036
  H      -3.64325996555559     -1.69449731405011      0.82904091490002
  H      -1.98110452057675     -1.92662465620437      1.48255565483111
  O       1.54893113062234     -2.22289346744094     -1.39861222379953
  S       0.70484136866951     -1.86482360505663     -2.69747147941302
  O      -0.73148643049860     -1.98841558007360     -2.07623416001733
  O       0.85416508664081     -0.29620095525232     -2.69028790195439
  S      -0.56884560469475      1.54383648697612      3.41011337996685
  C      -0.12172205742073      0.26709430344658      2.53806868853756
  N       0.21054478024688     -0.65773393598809      1.86191669675292
