39
Coordinates from ORCA job orca
  Cf      1.14494035287446     -1.22424743483358      0.18137670612337
  C      -1.28070732979295      4.25493350966068      3.61896220516484
  C      -1.58871357785925      4.09943687503617      2.26574876427745
  C      -1.10770834453883      2.99753051423293      1.56888105085006
  C      -0.31662984083191      2.04992131005436      2.23177735724867
  C      -0.00625714775522      2.20839825791441      3.58917820993652
  C      -0.49066648148996      3.31255594209523      4.28023706763853
  C       0.18852626347861      0.88015867982923      1.50495647013695
  O      -0.08069710615519      0.70409157833092      0.26676956966504
  O       0.89925064383584     -0.00061095384254      2.09129074550076
  H      -1.66007225726538      5.12299811152850      4.16468446607481
  H      -2.20554790843510      4.84375068245230      1.75652387295663
  H      -1.33319203879547      2.85426995384535      0.50976219032971
  H       0.61707051351509      1.45902411183048      4.08229916766138
  H      -0.25196770547386      3.44433432375451      5.33826542562171
  C      -1.04173025621629      1.41912702796951     -5.22941202685674
  C      -0.96189771119942      1.54235204191793     -3.84186505927671
  C      -0.74790032583571      0.41909759528478     -3.05226979739039
  C      -0.62442681800343     -0.84116512733596     -3.65787772793998
  C      -0.69797205179917     -0.95864428626071     -5.05563016740824
  C      -0.90495636965894      0.16993431996149     -5.83762473093239
  C      -0.40197298325134     -2.01725862748287     -2.80855389921597
  O      -0.03372508993468     -1.93363403622945     -1.63248206237719
  O      -0.60207090666071     -3.21812193930016     -3.28748688929049
  H      -1.20618491562784      2.30618658695126     -5.84642997919152
  H      -1.06512267815102      2.52290081327513     -3.37161837625013
  H      -0.69122086641717      0.51966015565433     -1.96465383321002
  H      -0.55226342470839     -1.92097693397129     -5.55926179868982
  H      -0.94930476498130      0.07902294188991     -6.92512494523813
  H      -0.96361247502856     -3.18328052480316     -4.18575170834894
  C      -1.32525586923527     -1.98393998232387      1.29750372249917
  O      -2.29192299749304     -2.19775877679389      1.82692008101542
  Cl      3.33620118969565     -0.77845280952263     -0.85438408183824
  C       2.54596576544523     -5.04181768194747      3.15783254449054
  C       2.04768953577065     -4.02399086667856      2.26412810042242
  N       1.65174415977479     -3.20422197927482      1.55265487716769
  H       2.13015142302732     -6.02120381552413      2.87741527998022
  H       2.25105471974477     -4.80305637473266      4.19085060035689
  H       3.64400567543304     -5.08110318261161      3.09420860833602
