37
Coordinates from ORCA job orca
  Ac     -1.26243295564899     -0.31062183732123     -0.12955709299261
  C       1.66511815364055     -0.71295450762042      1.94455561927948
  C       1.82651043857078     -0.41826946208651      0.45706900333619
  O       2.62203707682961     -1.07717689340003     -0.22764980958908
  O       1.02476692975245      0.45730616096635     -0.00327466475186
  N       0.23627974202857     -0.87539295820416      2.22016530958211
  H       2.06521888157707      0.15159975316324      2.49894125480592
  H       2.26333558044154     -1.59547964304025      2.21674775970824
  H      -0.04204855761174     -0.42418557749409      3.08973440127596
  H      -0.03212024034867     -1.85966105533140      2.31771299917617
  C      -2.00865119129538     -2.54887252496670      1.07136467478345
  N      -1.83452177925342     -3.38022600057593      1.87533540376391
  C      -1.19301989305501      3.90986621437203      2.54549014449364
  C      -0.58106405671617      2.83777037275539      1.67808220890656
  O      -1.55958013682528      1.90163590532303      1.22472772341031
  H      -0.41317361613873      4.60105306219354      2.90073132492892
  H      -1.69562349878139      3.47321401402370      3.42193707989288
  H      -1.93188320056666      4.50370048089820      1.98331948647386
  H       0.15983612740909      2.24532597126077      2.23560954484700
  H      -0.05593986060459      3.27153438714058      0.80897975386489
  H      -2.24290430807526      2.35295441940136      0.68928947639763
  C      -0.20658005305090     -0.60020907113930     -7.04712963493129
  C       1.13600665425074     -0.65699966008516     -6.66933015897975
  C       1.47480704834478     -0.80096653282807     -5.32860053288454
  C       0.46498180019169     -0.89611324924171     -4.36250044868141
  C      -0.88080702189431     -0.83984660118353     -4.74413571505125
  C      -1.21388842082816     -0.68834344315671     -6.08571983889081
  C       0.81245597496277     -1.03777244973720     -2.93235737858903
  O      -0.08802497095126     -1.20459194118938     -2.07809556920146
  O       2.05678391387772     -0.97016497767146     -2.64434062910132
  H      -0.47035948044458     -0.48315920041112     -8.10175390297896
  H       1.92169159647990     -0.58564633745413     -7.42563535899997
  H       2.51892090978505     -0.84157874532431     -5.01152215597795
  H      -1.65997670136181     -0.90229938197500     -3.98073242643391
  H      -2.26410335115451     -0.63614600306330     -6.38250320086179
  H       2.29263900701379     -1.00145103837513     -1.60903050483132
  I      -3.40528654054928      1.53616835137801     -1.62322414519864
