26
Coordinates from ORCA job orca
  Np     -0.34590139368290     -1.02238409386956      0.52296933414698
  C       2.15252496918016     -0.01088906801438      0.72544847161290
  O       3.16614446412235      0.47639242912665      0.77538199597129
  C      -3.83889752923019      3.88533058337274     -2.68966869429541
  C      -2.67287453858071      4.63762182879664     -2.52974272619723
  C      -1.57556059028558      4.08765409762610     -1.87353631174099
  C      -1.63326729670928      2.78112280072887     -1.37960281143236
  C      -2.80278593932559      2.03181413010245     -1.54059552339246
  C      -3.90432152143951      2.58426272888643     -2.19099302183854
  C      -0.42342157675340      2.21678075287687     -0.68412336469955
  O       0.56786518981776      2.89146650976187     -0.49009646149352
  O      -0.54571481471136      0.96751826920785     -0.33572911250634
  H      -4.70162360372670      4.31734337125290     -3.20605531416284
  H      -2.62191770932818      5.65809825013915     -2.92094727344020
  H      -0.64709849238144      4.64626812143726     -1.72776193523681
  H      -2.84558553467193      1.01188592081152     -1.15176888071466
  H      -4.81306326129861      1.98599430211293     -2.30168763164944
  O      -0.63698586089141     -0.47756671247576      2.50187268734814
  H      -1.23936231548586     -0.10029884730907      3.14766157006863
  O       0.70600775663318     -1.82379797280251     -1.23039894382921
  S       1.53210540991935     -3.04648737108758     -0.52538172825317
  O       0.79656637017798     -2.87630660060525      0.91358277418207
  O       2.92729866467441     -2.58576902438616     -0.36014559780517
  S      -5.29014674347954     -1.25962952939245     -0.44995174366076
  C      -3.73017592564716     -1.46450211062494     -0.13014418638288
  N      -2.57190817689574     -1.60222276567262      0.10581442940152
