29
Coordinates from ORCA job orca
  Lr     -0.18377245723514      0.78366717751452      0.65745962433118
  C       2.56100747095699     -5.42766095364187      0.61632439117612
  C       1.63018392247217     -4.61535749316551      1.27010538553080
  C       1.50912877364969     -3.28111176744781      0.91416599272535
  C       2.33186655439801     -2.74657422739762     -0.09595884217145
  C       3.26669873297800     -3.57411406442108     -0.75074330452265
  C       3.37586960559998     -4.90952099286666     -0.39465462479159
  C       2.20446383064020     -1.34519023363255     -0.44008016863016
  O       1.23780218856730     -0.63688816432902     -0.05468634637457
  O       3.08792682218144     -0.73121950111848     -1.16837724686446
  H       2.65326203794791     -6.48019941183042      0.89746050362074
  H       1.00403784109620     -5.02991495327904      2.06333066033840
  H       0.79713067898318     -2.63693378680864      1.43525196625403
  H       3.89573475519697     -3.20441509282838     -1.56857673070013
  H       4.09269447648646     -5.55477777694277     -0.90724535591678
  H       3.84584689515096     -1.29705841060202     -1.39123316989059
  S      -0.00627740594141      0.27989000352457      5.45860593170561
  C      -0.08295868333751      0.47690729521241      3.91765091696281
  N      -0.14320888350291      0.63515591540215      2.71105129130347
  C      -4.87411459769371     -0.20843220780865     -0.42007446233183
  C      -3.50034337318053      0.11997898674764     -0.15682470854658
  N      -2.39167186013312      0.37934617225919      0.05866778419862
  H      -5.24493210904952     -0.88905649917585      0.36374654860982
  H      -4.95570323201369     -0.70086886285785     -1.40264990145138
  H      -5.48145391297530      0.71131030132029     -0.42012944254785
  N       0.64029811277574      3.03001816372403      0.49660025118816
  H       1.64881268532551      3.07355778368289      0.68892558010434
  H       0.21959111623212      3.61851651457537      1.22666218216465
  H       0.51624448643908      3.55280833584840     -0.37810725908446
