27
Coordinates from ORCA job orca
  Pa     -0.08680343374148     -0.20554479657817      0.74267431306384
  N       0.82207934449025     -2.32165053891876      0.27090076381114
  C      -0.00700280674159     -3.38422727107639      0.35541649790790
  C       0.42443433473929     -4.67480803330380      0.09817064254087
  C       1.76463943892934     -4.85881653391756     -0.25684099910429
  C       2.62372808522343     -3.75849635234232     -0.34510258057866
  C       2.13079662473723     -2.48760957375786     -0.07750339106225
  C       2.90217063465303     -1.23713288659360     -0.14057097706235
  C       4.25577987316272     -1.14553521729726     -0.43353382178574
  C       4.86634648428942      0.11359720594444     -0.46092685204995
  C       4.11099382868206      1.25908480537948     -0.20010352660423
  C       2.76363594870302      1.10424068728793      0.08643023448531
  N       2.17329138545633     -0.11123864813177      0.11885778804421
  H      -1.05528178691644     -3.19541282538620      0.63801308037108
  H      -0.27099058356724     -5.51538434658459      0.17276218871937
  H       2.14355546157768     -5.86424661554657     -0.46880579584530
  H       3.66884093742018     -3.90638347316551     -0.62646039120666
  H       4.84707798948849     -2.04071367802940     -0.63885515794779
  H       5.93472724122755      0.19676024450491     -0.68652811171862
  H       4.55862468837014      2.25662636394403     -0.21586128740370
  H       2.13473744091252      1.98001155844418      0.30127425924027
  I       0.15902188435966      1.05938947990600      3.21172335179191
  C      -2.63394697531294     -0.40461904634150      1.62450237541477
  O      -3.68410886156493     -0.39050970283348      2.00374046918888
  S      -2.07623066347860      2.48134171654082     -2.70761028791095
  C      -1.44668710743083      1.60873442821676     -1.63066739544435
  N      -0.93312940766845      0.89234304963634     -0.73509538885473
