64
Coordinates from ORCA job orca
  Pa     -0.22826195834311      0.07352998092299     -0.08658246517955
  N       1.08570747381135     -2.12646645507548     -0.82559344545165
  C       0.66973918980464     -3.31031403698988     -0.36494117322659
  C       1.45927361949407     -4.45482602758263     -0.39305532857439
  C       2.74526494970597     -4.36040653597676     -0.91091188629217
  C       3.17638555069703     -3.13566215786634     -1.40680297410799
  C       2.31634772285652     -2.03575845825857     -1.36297511146748
  C       2.69016534837093     -0.72547412368442     -1.93534161161698
  C       3.93408318653134     -0.49547969018299     -2.53004939946085
  C       4.20449257021142      0.74474065311480     -3.09553153185593
  C       3.21499892975804      1.72126000943924     -3.07109110650550
  C       2.00973542325254      1.41747090977110     -2.44859722616366
  N       1.75399531260814      0.23658671247107     -1.88101460736355
  H      -0.34390678183439     -3.33152127550499      0.03734419332844
  H       1.06268732620067     -5.39818104346175     -0.01228523244032
  H       3.40644545932066     -5.23007837122720     -0.93887124675322
  H       4.17651514661195     -3.04644951233883     -1.83033300783251
  H       4.69334631771553     -1.27678222561050     -2.55462197871883
  H       5.17560856117962      0.94035920653532     -3.55665075368209
  H       3.36925515466359      2.70648540762940     -3.51550363579110
  H       1.21217397315160      2.16083074046942     -2.39106703993533
  N      -2.62274867998667      0.96628255421829     -0.48862612207223
  C      -3.16394618023240      0.98357861527973     -1.84602904004361
  C      -2.03628870044624      1.14534168735436     -2.84054440199347
  N      -1.03265026931073      0.11019016880554     -2.57220810037180
  H      -3.22365120952414      0.41092802576063      0.12074915568365
  H      -2.57453611778179      1.89888666903693     -0.05986237495427
  H      -3.91388961705534      1.78006079417261     -1.98674524171005
  H      -3.67300125123084      0.02264178929076     -2.02514957420171
  H      -1.55512427689370      2.12910929291738     -2.71393977379777
  H      -2.42721127992614      1.09374182337340     -3.87181656219325
  H      -0.25401821305209      0.17505524613124     -3.22678225213294
  H      -1.44563470161239     -0.81924276425931     -2.68946255423785
  N      -1.35346718410893      2.21420914197158      2.20418752327903
  O      -2.09015484911965      2.92239641941463      1.54475234287761
  O      -1.18709086523059      0.96997168411835      1.81036558024937
  O      -0.77743469768416      2.55155993356360      3.20555590230914
  C      -2.76959543684491     -2.40308816956305     -0.54560277011541
  N      -1.85773947135996     -1.65389816166990     -0.53296727110716
  C       1.46594189652367      3.69558907143283      0.57901134653274
  C       0.30017310438603      3.44010666864829     -0.34974038005806
  O       0.00477407833566      2.06276999183172     -0.43955417871962
  H       1.68242140025939      4.77419440711364      0.61930736305527
  H       2.36894817167544      3.16554563314539      0.23873959609970
  H       1.23673411210445      3.35563999641826      1.60057934437135
  H       0.52044641214707      3.81704354102082     -1.36735462331170
  H      -0.60492194439142      3.96471591080688      0.00053351124987
  C      -2.35798331046017     -1.65315809150278      3.30879420269602
  P      -0.57566828553442     -1.71119799818871      3.10019500128748
  O      -0.20700813649418     -1.42669035684405      1.61590665569506
  C       0.19651640696790     -0.56121562698764      4.23777688415620
  C       0.00504122359204     -3.36341022367226      3.50002505234374
  H      -2.68728457959676     -0.61744547123898      3.13988252782668
  H      -2.64384042673132     -1.97368810784481      4.32210041143992
  H      -2.82678880370832     -2.31019631207563      2.55909469342329
  H      -0.12904879362327     -0.78782975965543      5.26521666187753
  H      -0.08910430288972      0.46877268393831      3.97107638096835
  H       1.28981920710657     -0.67501545954281      4.16890908908259
  H      -0.19950023517807     -3.60466922545024      4.55412075425188
  H       1.09104253646366     -3.39779906229430      3.31951518119085
  H      -0.49941432882640     -4.09749013417225      2.85386460718987
  N       1.80291658839432      0.23631292447038      0.90371415011782
  N       2.40510106200369     -0.52742175387006      1.60846352372589
  N       2.97071747310631     -1.25785170199608      2.28012434713121
