34
Coordinates from ORCA job orca
  Fm     -0.16047272659583     -0.51607248842910      0.87244491262302
  N      -2.11083857347113     -0.51015857412290     -1.16673653928416
  O      -2.96428152917620     -0.45587677035585     -1.99898429524074
  O      -1.38316604360232      0.49686507964178     -0.87545615996383
  O      -1.85374377844038     -1.55548022312894     -0.50841359765268
  C       5.27494036028420      3.87042652934704      1.97399463982029
  C       5.40040640099481      3.56231183006424      0.61829588189601
  C       4.59102421844594      2.58349137592121      0.04958331581708
  C       3.64384073373439      1.91604669272806      0.83189912892395
  C       3.52214032579682      2.22540341420814      2.19064907844284
  C       4.33897765734974      3.19873134598257      2.76092107392562
  C       2.76486766815726      0.88436603863533      0.19354148766193
  O       2.96484572633809      0.52827984673701     -0.96469470753563
  O       1.79991411160277      0.44166771237904      0.93322828110655
  H       5.91408031925959      4.63666836000516      2.42147535434207
  H       6.13610825426394      4.08853506582727      0.00418880812393
  H       4.66818397789721      2.31455985292959     -1.00681475059114
  H       2.79129263934287      1.67758550901523      2.79102443287553
  H       4.25049795773991      3.43280022258953      3.82533271452588
  C      -3.63581735720936     -2.43300072727630      3.19520254061044
  C      -3.01317953195243     -1.28291551622257      2.58478487602678
  N      -2.46171050761338     -0.39531480853612      2.08757730775477
  H      -4.19958880019446     -2.13893465158688      4.09189627107132
  H      -2.82700816733546     -3.12976284662505      3.47387754188953
  H      -4.30822209886018     -2.92134729108963      2.47501747636867
  I       0.35925631147203     -2.72736996416787      2.74804085724045
  N       0.99349072514799     -1.47460269584906     -1.03806925618480
  H       1.76826247754843     -0.81148707311818     -1.24685451660327
  H       0.46250992439602     -1.66043998482587     -1.88818017022907
  H       1.42218413271690     -2.35992032117454     -0.75948512546216
  N      -0.59141678880789      1.84956492719777      1.49731137638218
  H      -1.20254802348262      2.21714725428499      0.76514271661108
  H       0.27861944689584      2.38318139927587      1.48564452138371
  H      -1.05754944264325      2.01635147973897      2.38911452332374
