42
Coordinates from ORCA job orca
  Cf     -0.02776659715523     -0.73911148585769      0.15557646429262
  N       0.64663277462314     -0.01239502990327      2.42044420091370
  C      -0.40185809398460      0.96956485215691      2.76132376982549
  C      -0.30834813259694      2.16643701314132      1.83565025256171
  N      -0.37387441182501      1.78650256652239      0.40048696663650
  C      -1.63213556193506      2.17112868798609     -0.28093615659966
  C      -2.73042210073761      1.14869969732794     -0.07956198632922
  N      -2.31369770188835     -0.15259651471024     -0.63402993789372
  H       0.55653410486788     -0.82880699964626      3.03376281507328
  H       1.57074125679869      0.38169072194188      2.62010280309948
  H      -0.32946879975370      1.30425310279431      3.80978837654659
  H      -1.37937813603047      0.46149868991076      2.66799446779235
  H       0.64467125283698      2.69280856127095      2.01269831268132
  H      -1.10502266299858      2.88795226707510      2.08190011907768
  H       0.37645634865611      2.28758005416713     -0.07782899477547
  H      -1.41269234823370      2.26607048651705     -1.35847589407103
  H      -1.97348362458062      3.16457669385000      0.05847758289739
  H      -3.66333474325057      1.51343437877204     -0.54065590600916
  H      -2.95123030300674      1.00929245754414      0.99202472255295
  H      -2.38886594794150     -0.13227251884522     -1.65535837338628
  H      -2.96370506268119     -0.88058499538287     -0.31899432848799
  N       1.80925900352726     -2.42434900223811      0.21878264100214
  H       2.72032233827995     -2.20310789624843      0.63040015241551
  H       2.01197119296830     -2.78750815848247     -0.71862282432094
  H       1.44600269008027     -3.21778088859692      0.75790035054160
  C      -2.12284593201300     -2.02405829424003      1.81422752828312
  N      -1.08793160827793     -2.32469012300858      1.32054508363357
  C       0.17899142505633      0.22255871582034     -7.01526702430690
  C       0.67595832732103     -1.07416650729305     -6.85881370262668
  C       0.91342675581728     -1.57235668385004     -5.58608022532511
  C       0.65030502405916     -0.77272343880293     -4.45694794885167
  C       0.13786834690267      0.52668376810557     -4.62543580733552
  C      -0.09025543486074      1.02164411495626     -5.90062381163920
  C       0.88884119822446     -1.26040124907232     -3.10851267146458
  O       0.46645712513465     -0.68396854958586     -2.08682581043058
  O       1.57925151717937     -2.36154996270639     -2.91128943238225
  H      -0.00277655584177      0.61336635783160     -8.02001651600039
  H       0.87118598372916     -1.69756339426519     -7.73423501382458
  H       1.27098686359933     -2.60489668693712     -5.49894983775223
  H      -0.05562623128939      1.14487023251166     -3.74600384391195
  H      -0.47509697637147      2.03495568862031     -6.03609551114063
  H       1.92885343759217     -2.72978072915074     -3.73972505096107
