40
Coordinates from ORCA job orca
  U       1.15848163496124     -0.05451850979832      0.08595534965355
  C      -1.17427502246997     -1.28734438434188      2.23676714171751
  O      -0.05503657265623     -0.91715553099412      1.52675583798650
  H      -0.91802447747887     -1.99168715470078      3.05252916033131
  H      -1.92887836649293     -1.77633535155009      1.59011294591066
  H      -1.66751068135723     -0.40958057076836      2.70478858119123
  C      -1.35161267467203     -5.50114784711625     -2.96068256975313
  C      -0.16184236014438     -4.82025103763893     -2.70350077854130
  C      -0.18999632303286     -3.51620351144702     -2.21104612358235
  C      -1.41735117863258     -2.89374237656698     -1.96462348094111
  C      -2.60880974603614     -3.58290557854190     -2.21335906682247
  C      -2.57806560884953     -4.88036078021664     -2.71478385342657
  C      -1.49553053390225     -1.49409996445147     -1.41973869532147
  O      -2.58123445130928     -1.03219684106837     -1.08586216839629
  O      -0.37262161280692     -0.85789332885738     -1.34027298344514
  H      -1.32466255803350     -6.52346563113846     -3.35020452499530
  H       0.80085172704229     -5.30691741603460     -2.88322060870530
  H       0.74019579454901     -2.98154844599102     -1.99376426838579
  H      -3.54873267782099     -3.06758337151715     -1.99956004590731
  H      -3.51246627963603     -5.41419400522888     -2.91294333347349
  Br      3.04442588685640     -2.08372483321045     -0.42937757249068
  C      -2.78401936571694      2.67678060622082      0.70356842524264
  C      -1.89948165692210      1.66265695774042      0.32862299935534
  N      -0.59530548904529      1.78425763200707      0.58774397622290
  C      -0.17869135249818      2.89192913471941      1.20508623001587
  C      -1.08314425232743      3.88379883094891      1.57426954222137
  N      -2.38677328334754      3.78181127711481      1.32601828782106
  H      -3.85308044988921      2.57532618502264      0.48450332444126
  H      -2.23537781866082      0.74827997038775     -0.18684966757011
  H       0.89533448026179      2.97356968159993      1.39819689469514
  H      -0.73223721183918      4.78835032741230      2.08395734713521
  I       2.01500187845185      2.22176386819823     -1.84556765970315
  C       4.74606058317522      1.07599408797437      1.47855386861478
  C       3.44691573733670      1.33435296833135      2.21738732243709
  O       2.35658066756472      0.87018161089082      1.50469533890563
  H       5.61256642896908      1.43564709360117      2.05907291513308
  H       4.73045687288314      1.58786342286045      0.50273744940670
  H       4.86349401106814     -0.00264935848149      1.28691974946296
  H       3.33549439382308      2.42479546610776      2.40272010423642
  H       3.47690190863574      0.85124670852250      3.21639460932281
