48
Coordinates from ORCA job orca
  Ac     -0.97947850294213     -0.59722019334768      0.39740890882443
  N      -0.42694597608251     -0.88180279297668      3.04046357958964
  H      -0.24714629633774     -1.89227530368582      3.11296288021947
  H      -1.19013411679673     -0.70728115692090      3.70188483609917
  H       0.38940420121929     -0.41799085002659      3.44886906692061
  C      -1.06747436085833     -3.49738199662943      1.36681401065334
  N      -1.81608484648131     -2.90886101322884      0.66395740199341
  C       2.42907250268324     -2.80228972424897      1.93780717578951
  P       1.90844993973497     -1.97219863099032      0.39443542914115
  C       1.96013735560025     -3.32487459229212     -0.83849641702364
  C       3.34448410200192     -0.92883070388068     -0.05723610090838
  H       3.38559180597289     -3.32772582088976      1.78567619018261
  H       1.66104876911027     -3.53607292512989      2.22994170753361
  H       2.56586127093163     -2.07038878440512      2.74930285041204
  H       2.92841715751434     -3.84874173305283     -0.79148879123783
  H       1.83367431036179     -2.92256460888410     -1.85584111546631
  H       1.15416718158461     -4.04631121458040     -0.63144380771919
  H       4.26530991473846     -1.53152675175289     -0.11086101555973
  H       3.49058190976626     -0.13383171224536      0.69062059877721
  H       3.17459119044381     -0.45328532146343     -1.03601108106430
  C      -1.04637691838183      4.26198055890035      0.81954835169189
  C      -0.84385238823944      2.91316463773809      0.52358886118025
  N      -1.54485987936536      1.95738625619423      1.14964372050803
  C      -2.44523795413565      2.34881330600680      2.06091206867521
  C      -2.63575964398574      3.70190382925489      2.34396477375218
  N      -1.93714414249689      4.64641245089413      1.72482558718000
  H      -0.47143227942555      5.04046465074241      0.30615697680351
  H      -0.11322208806346      2.60480504564401     -0.23460419045699
  H      -3.03286154129136      1.57946242592441      2.57439436326260
  H      -3.37279793116735      4.01934304304840      3.08977497863213
  C       2.07988396270010      0.06196820797277     -6.32600510223063
  C       2.23341268550051      1.02835411029348     -5.32835002912278
  C       1.59113870672682      0.86957789620296     -4.10938913068967
  C       0.78780021492251     -0.26461204874880     -3.88352100366110
  C       0.63828146539441     -1.23428636839656     -4.89596635748877
  C       1.28434663743245     -1.06807180491199     -6.11110959689532
  C       0.13791178679267     -0.38639928823071     -2.59638149161979
  O       0.23038020160017      0.41616883514945     -1.65982441276169
  O      -0.63662692267321     -1.44854015695310     -2.31633318169470
  H       2.58521373046716      0.18932977065054     -7.28736842792222
  H       2.85625995478342      1.90725975022577     -5.50943509051498
  H       1.69681493253479      1.61632063984646     -3.31915632448116
  H       0.01860071054952     -2.12903850507383     -4.76563381683998
  H       1.16943154118893     -1.81607319732510     -6.89885312997811
  H      -0.72130409375821     -2.09801371781061     -3.03258873777482
  O      -3.51220340553702     -0.83968146413095     -0.12716959660182
  H      -4.32943529767629     -0.41163076650674     -0.41808396893013
  H      -3.70028955656116     -1.78821226596885     -0.00770239917775
