48
Coordinates from ORCA job orca
  Ac      0.21762845592179      0.52037996185756     -0.39179751796266
  N      -1.45976401675798      2.84811025902285     -1.44565855119205
  O      -2.07758382571868      3.72712273320415     -1.96956071750492
  O      -0.35007439314022      3.04255069408448     -0.87449670879656
  O      -1.88157754747455      1.64507671263412     -1.43643391975755
  C       2.23408907973233     -2.26839194152366      0.38927873504027
  C       3.45289759872628     -2.72849370481915      1.17315785138701
  C       3.80302916782650     -1.48812807373841      1.98841062866602
  C       3.52914895188403     -0.38153577365658      0.98824098218709
  O       2.39859511441671     -0.84338854925850      0.23569444381153
  H       1.29478793260458     -2.44506318260001      0.94124698416621
  H       2.14091936038136     -2.71686051307286     -0.61030723148712
  H       4.28001512572106     -2.98293460773734      0.48966541267020
  H       3.23901273527936     -3.61310086725166      1.79062841918864
  H       4.83970439233724     -1.47879264581828      2.35593616025496
  H       3.13019496944685     -1.38883475985374      2.85702221335664
  H       4.37958135987526     -0.23272084550658      0.29848711722064
  H       3.25784937905536      0.57768898520705      1.45482000569468
  F      -0.20284554527557     -1.35362999075301     -1.52488822228470
  C       1.32096282357496     -1.06456480431223      6.51955421137579
  C       1.85598965029914      0.12117082503719      6.01306534760531
  C       1.55689136271879      0.51929578159884      4.71301489301099
  C       0.71830170203584     -0.26848716067793      3.91748095581906
  C       0.17722075632825     -1.45260990607456      4.42978595831735
  C       0.48209476777491     -1.85099712891082      5.72839141417795
  C       0.42158876352324      0.13818564495646      2.51284318348131
  O      -0.36739662616475     -0.57635416325389      1.82402161779599
  O       0.99544292410202      1.15195446217316      2.02402912854072
  H       1.55725399731091     -1.37672031079638      7.54075518168301
  H       2.50712055529294      0.73774217767361      6.63849099950695
  H       1.96043466539689      1.44335089305097      4.29141631722884
  H      -0.48085787702597     -2.04499437765657      3.78916024940970
  H       0.06176143142587     -2.77703127112562      6.12991743013725
  C      -2.00221477515985     -1.16354578552642     -6.23040080538382
  C      -0.73579519829769     -1.70608208588891     -6.44793668609775
  C       0.30244038922206     -1.40906894857491     -5.57104116032259
  C       0.07791615321980     -0.56324985759495     -4.47653097044872
  C      -1.18746253020172      0.00020019373265     -4.27714779449248
  C      -2.22527724509968     -0.31172059380246     -5.14832563052699
  C       1.15493597335490     -0.26390930441241     -3.50687530793525
  O       1.18327143231853      0.74325933286166     -2.81403797823306
  O       2.14794979740555     -1.13373485722082     -3.40790206610430
  H      -2.82154959956971     -1.40567103836198     -6.91250628101331
  H      -0.55562060853734     -2.35881180007964     -7.30547664709697
  H       1.29951486587457     -1.81694186840982     -5.76996051496394
  H      -1.37066085601446      0.65492614478180     -3.42101593007276
  H      -3.21737283065535      0.11205303321991     -4.97509667651342
  H       1.90740784070500     -1.95249711682594     -3.86411852354305
