42
Coordinates from ORCA job orca
  Th     -0.45405740015887      0.64602087585649      0.71555049225211
  C      -0.96740206436387     -2.89973341089950      2.79334994618369
  C      -1.89682167981918     -2.30801783908932      1.76155867325399
  O      -1.41491460348428     -1.04023502324171      1.30948729107551
  H      -1.35702679944472     -3.86785153628363      3.14330894594637
  H      -0.89061743856338     -2.25499824731433      3.68704707205380
  H       0.03207392015973     -3.10209759711574      2.37011964801367
  H      -2.90507320568842     -2.15052235708044      2.17551989590782
  H      -1.98963067698222     -2.96110673894280      0.88015565529125
  C       4.46165324108352      5.27653467615593     -1.82650624648271
  C       4.88823265493810      4.00719449852352     -2.23063451400013
  C       4.26621368490663      2.87892520237859     -1.72139326032946
  C       3.20181001318787      3.01702080929430     -0.80582687269741
  C       2.76806263733886      4.30036096057627     -0.41818174667665
  C       3.40428245791899      5.42321427704513     -0.92366972598168
  C       2.55081581778718      1.85944624605928     -0.24254553942171
  O       1.46494613956887      1.92347242276775      0.40483913868879
  O       3.04986917981093      0.66027844059210     -0.35171485981010
  H       4.96076851178699      6.16440239976944     -2.22417461222024
  H       5.70466218017584      3.90443767174025     -2.94880274892610
  H       4.59980758450042      1.89851635099819     -2.08027752222645
  H       1.95026901800475      4.40050644669861      0.29877487560942
  H       3.08514249847041      6.42094781809136     -0.61409489849192
  H       3.88771935386384      0.63978744504203     -0.84432829805133
  O       1.06200101883756     -0.27183189756104      2.44155935512521
  H       0.81167111197352     -1.09905116213347      2.88953650160199
  H       1.95904631856066     -0.04207197955899      2.72858227696543
  C      -0.03828146093665      0.13931419826172     -1.60685382604024
  N       0.29400810282746      0.29544638457133     -2.71477839313875
  C      -2.18909244273683      3.17001806393866     -0.64616379110965
  C      -3.62854703560271      3.39127472143869     -1.04651037465289
  C      -4.36138872885732      3.23513157040057      0.28147673255001
  C      -3.65861602806567      2.05618586824857      0.91935977413179
  O      -2.27126176996955      2.13818297700398      0.40856276652545
  H      -1.73306019926517      4.06525656196733     -0.19440101786336
  H      -1.54653029495333      2.77722316322559     -1.45222646930209
  H      -3.94965844081255      2.62907746499443     -1.77442791455624
  H      -3.77347035969633      4.37950662880842     -1.50585914285704
  H      -5.43744087447748      3.04544548683930      0.15981780183394
  H      -4.24791379546955      4.13799312635482      0.90214165831869
  H      -4.06398348904428      1.08727888222817      0.58898969356916
  H      -3.61316665730981      2.09321614934968      2.01733357993806
