47
Coordinates from ORCA job orca
  Md      0.08420100338373     -0.25776578626866      0.13383188787366
  N       0.32883835800843      0.00432528446284      2.94028883800557
  O       0.10184919924677     -1.07042467893187      2.34992159864583
  O       0.46538284992201      0.95921993132141      2.13809153617075
  C       4.65661077709540      0.22802126508640      1.17303754317918
  C       3.27098809749010      0.36102729263937      1.06328243479806
  N       2.56960427284031     -0.44619485756835      0.25964797556321
  C       3.24644128554753     -1.37467918176482     -0.42579624507190
  C       4.62933802428591     -1.49047709650948     -0.30429064554939
  N       5.32964855723182     -0.69079231662854      0.49260091263841
  H       5.22450532189072      0.88880055090039      1.83684862357808
  H       2.71550419581543      1.10901420539897      1.63726662625437
  H       2.67111171273046     -2.04108864684271     -1.07622167355482
  H       5.17656784711377     -2.25377916924949     -0.86816702019539
  C       0.25092665909925      4.53625926395495     -0.62028662283660
  P      -0.83447181513842      3.13010849847594     -0.35808268948251
  O      -0.03401292844094      1.81946107057734     -0.59843316343395
  C      -1.50807829222647      3.22496997809183      1.30165371293093
  C      -2.19828843982915      3.24024715387879     -1.52255142024956
  H      -0.29605205172311      5.48226386868080     -0.49086777172809
  H       0.66721880287142      4.49074889471063     -1.63769881736845
  H       1.07568358529545      4.49221893984269      0.10699215101865
  H      -2.00738220682824      4.19457267436278      1.45095380292289
  H      -0.69681325702809      3.09449989065052      2.03363452075232
  H      -2.23386126084592      2.40713832299582      1.43320832152605
  H      -2.71346826305155      4.20743439459628     -1.41677568612647
  H      -2.92146941497962      2.43181444448349     -1.33070667875987
  H      -1.81237476781793      3.14397661552872     -2.54868453213680
  C       0.76514165659637     -3.55826324168941      0.78316445546511
  C       0.11355328431228     -4.86806648488577      0.39957579693633
  C       0.09932161866038     -4.77804753042181     -1.12090246297408
  C      -0.26402496228227     -3.32425628156678     -1.34957548480771
  O       0.29586127800665     -2.61035420060497     -0.21377111221065
  H       1.86638314145650     -3.61366407425061      0.71351411822423
  H       0.48886484417803     -3.17781751145180      1.77499586225778
  H      -0.91285810180322     -4.91611082751508      0.79840028135062
  H       0.66673776397827     -5.73667146701086      0.78420047683780
  H      -0.61891396895275     -5.46065916037271     -1.59686914763858
  H       1.09835158165240     -5.00277520249985     -1.53020827566627
  H      -1.35133587538142     -3.15535818433704     -1.35934631512874
  H       0.15859675837483     -2.89739255788643     -2.27275581005398
  C       0.91556164538304     -0.10876726902763     -2.47612942588556
  O       1.05399639731833      0.16503743194595     -3.55676682001329
  N      -2.57056600283017     -0.17538188891364     -0.67729169691023
  O      -3.67794956342455      0.04724154494282     -1.04894535946609
  O      -2.17391512301186      0.10952323005519      0.50143696216681
  O      -1.67865422418997     -0.68463713138556     -1.42062356184766
