33
Coordinates from ORCA job orca
  Pu     -0.98283429950320     -0.05451058107940      0.11108264904741
  C       0.39970120146306      3.09279101047949      0.81651823799496
  O      -0.37083594481730      2.32395275615746     -0.10787505035672
  H      -0.10094263810069      3.15333262543202      1.79469107603905
  H       0.57500941420285      4.10314817177676      0.41819776868477
  H       1.36717925825292      2.58729425966640      0.93693892709228
  H      -1.24057791292655      2.73038243680407     -0.25644382499714
  Cl     -1.79496427122721     -2.42627379456253      0.02066062815134
  C       0.02943772693229     -1.22184269755830     -4.36079432191322
  C      -0.40995351328671     -1.15473996183602     -3.03811952953413
  N      -0.18054290132517     -0.05968726176317     -2.30231381919214
  C       0.46811254628953      0.95821959173410     -2.87880124850837
  C       0.90012856680678      0.86658767513517     -4.20108406329651
  N       0.68405596439966     -0.21939785680415     -4.93393782814211
  H      -0.15960978424347     -2.11796844920921     -4.96163413344428
  H      -0.94706328128753     -1.98090297611920     -2.56059299123346
  H       0.63218930922255      1.85625887665855     -2.27641097670813
  H       1.43364109802059      1.70044175558526     -4.67006338204134
  C       3.25124898987929     -2.83407412170915      0.41956010749935
  C       2.17042890453857     -1.88571828270926      0.28984204621528
  N       1.29396382098370     -1.13965198307268      0.18766260534722
  H       2.84876481030571     -3.85573972637236      0.33966373678993
  H       3.73835813849745     -2.71372254274273      1.39885161488694
  H       3.99254976735439     -2.67226856504746     -0.37724412550632
  C      -2.64154583466921     -0.83789187110893      3.51512159101590
  C      -1.35942148716748     -0.04240309039326      3.42933448648286
  O      -0.94291986747112      0.12453444137386      2.09131571544879
  H      -2.93852042915696     -0.96259517058705      4.56733847105411
  H      -2.51469041341434     -1.83673283583949      3.07002848338799
  H      -3.46065689537987     -0.32286598929574      2.98889214369391
  H      -0.54218862806286     -0.54572032722636      3.97510138777076
  H      -1.48311753787439      0.96125624804025      3.87287343068211
  F      -2.64998387723526      1.05490823619304     -0.30105981241111
