42
Coordinates from ORCA job orca
  Pu     -0.48083929131583     -0.67309187586557     -0.17756828671497
  C       4.10630164740512     -0.15250935589035     -0.17453136930655
  C       2.82014644952001     -0.79732856067711     -0.59879641178107
  C       2.82189438681137     -1.77077065631698     -1.60998277306038
  C       1.66246492795971     -2.44465210440108     -2.02771309027376
  O       0.50294113909904     -2.20021815449521     -1.57496832662122
  C       1.75464188911796     -3.53146352522588     -3.05655903845774
  O       1.77779964078535     -0.41177765257793      0.01469273832079
  H       4.98067773780058     -0.54695106327794     -0.70790654137483
  H       4.23776879180075     -0.29402471240616      0.90972538755067
  H       4.03214199918145      0.93354351061879     -0.34479266649283
  H       3.77434797098974     -2.04644302326258     -2.06340153662441
  H       2.78047705979749     -3.70037110965847     -3.40813393944613
  H       1.10942111787360     -3.27291025859681     -3.91095942610253
  H       1.35450653734881     -4.46339048667442     -2.62658086022014
  C      -2.62572354475658      2.13318287072259      1.29492931084794
  C      -1.52429467283784      1.51461116526319      2.13486298149515
  O      -0.83814444512362      0.52828143842486      1.43628069931036
  H      -3.17148401661389      2.90438645109391      1.86176908317575
  H      -3.34169841357691      1.35983275996285      0.97339108516640
  H      -2.20485002060178      2.60132031654916      0.39011467502370
  H      -1.95457604702674      1.07652985134424      3.05684939887692
  H      -0.80995024068972      2.29597597236050      2.46097214007441
  C      -5.87226684680916     -4.48734310166361      2.12984404968014
  C      -6.10018785380361     -3.43699246668676      1.23917500668856
  C      -5.02782509319090     -2.70042148496493      0.74552316871920
  C      -3.72655949598785     -3.01915841142352      1.14492075161291
  C      -3.49818049580368     -4.07047681745442      2.03822535353833
  C      -4.57318693816580     -4.80351603029065      2.53073874896626
  C      -2.58090268236567     -2.23474281309552      0.62585303314713
  O      -2.77765389231868     -1.26910554250552     -0.17099157835886
  O      -1.40252720376647     -2.52226560029356      0.98967838318377
  H      -6.71641015035150     -5.06490720879139      2.51676076675846
  H      -7.12012387978732     -3.19370455962354      0.93030268856930
  H      -5.17318135398543     -1.87168641160095      0.04837104059242
  H      -2.46937161292952     -4.29167390751947      2.33227323121354
  H      -4.40068182950574     -5.62436412479749      3.23177092234211
  C      -0.68895123978393      1.77699877233750     -2.54156060753758
  O      -0.68565225669893      0.71844841049685     -1.65391589846011
  H       0.33096840647868      1.99465731621490     -2.91063984970799
  H      -1.08057816677158      2.69760924290316     -2.06929194290282
  H      -1.32359801740075      1.55408294174563     -3.41913050141026
