45
Coordinates from ORCA job orca
  Lr      0.81753948956690      0.22369624579108      0.75532691110025
  N      -1.70120784333883      0.21859784616908      0.74924469680349
  C      -2.34325407298204      0.39015214840645     -0.40591831657295
  C      -3.72011720263874      0.22475650649975     -0.53604894973982
  C      -4.44858805778530     -0.14329662114723      0.58452162744018
  C      -3.77986106933380     -0.32317846108893      1.79109059387333
  C      -2.39777359213525     -0.12900544170875      1.84350728637120
  C      -1.63082892683170     -0.28550684528689      3.10044529219275
  C      -2.26352561042382     -0.49013976875789      4.33244761697364
  C      -1.49325705101889     -0.60977493224064      5.48198060394714
  C      -0.11087230256524     -0.51537039821478      5.37469834098068
  C       0.44289585110894     -0.30806802616718      4.11440472578667
  N      -0.29642515848253     -0.20235022236008      3.00960455214671
  H      -1.70985364951658      0.67290014565256     -1.25125195598779
  H      -4.18990089389187      0.36269457991742     -1.51117296911128
  H      -5.52869765389945     -0.30226657451101      0.52599571009947
  H      -4.33328549540207     -0.62713386943545      2.67973785827214
  H      -3.35038247653124     -0.54447160992547      4.39760766554991
  H      -1.97299048665123     -0.76958206438605      6.45162944566273
  H       0.54163900307340     -0.59836350828331      6.24617493216583
  H       1.52420859642772     -0.23485472740848      3.96626268148491
  S       0.13288552901855     -2.53078485134798      0.58780850359544
  C      -1.07217605012395     -2.51974047771686     -0.56867358989062
  N      -1.92878451116279     -2.51312083808940     -1.36837168404979
  C      -0.52532184998928      5.51377126860398     -3.42183552951321
  C       0.29675053337969      4.78010116940591     -4.27967881893965
  C       0.75207289410135      3.52163149748143     -3.89636152629712
  C       0.37469264940201      2.98152789275301     -2.66389194196058
  C      -0.44604613587197      3.71824565793607     -1.80486088353795
  C      -0.88942095364530      4.98434050165491     -2.18365376021846
  C       0.89621164966063      1.62615340860500     -2.26085257276691
  O       1.81037193427471      1.11822410749301     -2.91080257962296
  O       0.32449882205968      1.09998766736908     -1.23943485883302
  H      -0.87593764608445      6.50766626356645     -3.71666511555419
  H       0.58915461027962      5.19821779906198     -5.24768304584028
  H       1.41433183130979      2.92740321331869     -4.53132049205187
  H      -0.69180116892863      3.29852721378497     -0.82504072696956
  H      -1.51514962598974      5.56643175916696     -1.50059140348487
  N       2.54358653958291     -0.60065160590054     -0.78209980195953
  H       2.31137593375392     -1.58941821957987     -0.89349640043535
  H       3.49138683893865     -0.54813782227294     -0.41246587157128
  H       2.47245846504432     -0.13242422567698     -1.70108440592058
  Br      0.85554338219530      2.78109611207036      1.68448786983226
  C       3.64428277316323     -0.78053085661024      2.55821099817435
  N       2.63797215888349     -0.43295103659134      2.05476928837655
