43
Coordinates from ORCA job orca
  Am     -1.43972260319062     -0.86246906543311      0.53882083243665
  C       0.10531313448537      2.99061230502441      6.16673457952283
  C       0.93735846381320      3.06142986330761      5.04820271573853
  C       0.68463687976210      2.25312907302861      3.94492057540085
  C      -0.40124623115419      1.37114104167370      3.96248574876983
  C      -1.23440720951592      1.30072858944161      5.08370518564018
  C      -0.97898970699115      2.11190545407709      6.18478347429379
  C      -0.67854249934186      0.51461577458918      2.78754806140230
  O      -1.63896008118001     -0.30855871733969      2.80619123336521
  O       0.03605433130513      0.61354731475512      1.74083402107026
  H       0.30404143750298      3.62776810198598      7.03286973445498
  H       1.78514882470950      3.75151622065257      5.03951665262489
  H       1.31987014411637      2.29105861956473      3.05680118752413
  H      -2.07710151549657      0.60531808867900      5.06759990894584
  H      -1.63005291890644      2.06423491897961      7.06112497444984
  C       2.33454645401266     -3.33248762942147     -1.15039439926093
  C       1.09299845372651     -2.97493990059169     -0.62672178552879
  N       0.94204371820308     -1.83886619934730      0.05756726347462
  C       2.02310679333385     -1.07696094596381      0.23424636443248
  C       3.25615679790529     -1.45217335469515     -0.29694116961355
  N       3.41223917682583     -2.57037581005836     -0.99663869157182
  H       2.44772786529776     -4.26608420449983     -1.71282497957747
  H       0.20282032213918     -3.60243687704611     -0.74939980203519
  H       1.88618527533387     -0.15345440628153      0.80514694525366
  H       4.13712993721281     -0.81741595042541     -0.15049298542793
  I      -2.39788684943599     -3.70969271469066      0.63830585523319
  C       1.47562358110309     -1.12964080266171     -4.06645326311999
  O       1.06252017156343     -0.58888882343367     -2.82691405759078
  P      -0.45264013856866      0.01339709964259     -2.65709423812131
  O      -0.19260174876259      0.64424809314369     -1.14621385196530
  C      -0.01585011395962      2.05423228244306     -0.99785798008257
  O      -1.24417888226902     -1.31371321073486     -2.01010224180098
  C      -2.35593877382529     -1.85233576035481     -2.74273018155692
  H       1.21721343097747     -2.20010151832712     -4.13065938911263
  H       2.56841018544718     -1.03063251078070     -4.12763507282066
  H       1.01918542977534     -0.59939986294249     -4.92129798253377
  H       0.19727145845946      2.22090649187444      0.06556076458430
  H      -0.94025758870313      2.58408036569484     -1.27506504527458
  H       0.83462347823654      2.39741464800999     -1.60795482231303
  H      -2.62355762608900     -2.79563437011385     -2.24782822471383
  H      -2.06781053323937     -2.04461524536725     -3.78871072279577
  H      -3.20946635249721     -1.15814211192130     -2.69550248151412
  Br     -3.46681437212142      0.78103564586411     -0.34993271028656
