48
Coordinates from ORCA job orca
  Ac     -0.45409655113205      0.64485135465737     -0.52913506513032
  C       3.22844128040795     -1.32386894724524      1.22651870703908
  P       3.05877960593165      0.44057547732339      0.96036937534988
  O       1.56256846491137      0.80240921065164      0.64895310406880
  C       3.58515381431899      1.31666627143047      2.43260499893286
  C       4.11035468086993      0.90344002061818     -0.41513199552916
  H       2.59009626570345     -1.64026855510653      2.06559345044383
  H       4.27554435851216     -1.57174917938824      1.46138265076670
  H       2.93062053113634     -1.84212907209999      0.30001841606578
  H       4.63452324554266      1.07614364585945      2.66382798151051
  H       2.95343295354671      1.02263372279524      3.28442504112217
  H       3.49259035667095      2.40158249433514      2.27255896379387
  H       5.16083512866392      0.66945155284446     -0.18084458319509
  H       4.02184539819743      1.98273931219818     -0.61187416034565
  H       3.80552958589990      0.33060959822778     -1.30576923624895
  N      -0.53083605929930      2.05534970369153     -2.88670031761978
  H      -1.44321013431848      2.30923346820575     -3.27541956552042
  H      -0.12423104131950      1.38327144376368     -3.54693964152420
  H       0.03667891421846      2.90311719498600     -2.97661357505699
  C      -3.43479804129059      3.83224973520509     -1.21707504302500
  P      -2.81869465686924      2.82481118013469      0.18437893346808
  C      -2.40934502318951      4.07974659293605      1.45336977224206
  C      -4.34093144081951      2.04466340345703      0.83862565646944
  H      -4.24103891648796      4.50626402555155     -0.88516621198065
  H      -3.83601934036965      3.18332161625337     -2.01158547399776
  H      -2.62276267357539      4.44757876751365     -1.63506708376257
  H      -3.27611865811620      4.73180267145119      1.64745470250334
  H      -1.56760815722202      4.70519252082657      1.11775526194240
  H      -2.12227188416288      3.58955817263530      2.39657889140894
  H      -5.10543962388134      2.80685181207021      1.05950168893772
  H      -4.11691159785536      1.49281326898294      1.76469933167285
  H      -4.75220567224921      1.33538572856043      0.10374022305382
  C       1.57583607218724     -1.28713653811818     -1.96956634061115
  N       0.57741843120272     -0.74786348881602     -2.30333252422619
  C      -3.21748305024858     -3.44447128184507      0.70172444152445
  P      -1.86100987277138     -2.85678038254554     -0.31059704608043
  O      -1.65491530735254     -1.32070451546116     -0.07421556392795
  C      -0.36904170567460     -3.75268349979317      0.12698245210826
  C      -2.22472140371732     -3.17378632781141     -2.03716419620548
  H      -2.99182967978119     -3.26353023832176      1.76361818922133
  H      -3.37225509001105     -4.52336279001942      0.54507932836952
  H      -4.13938831790697     -2.90667577471625      0.43321008381350
  H      -0.50922805187949     -4.83219461143187     -0.04009912865675
  H      -0.13297956417030     -3.58436412921967      1.18898292798653
  H       0.46298502021001     -3.39630363066968     -0.50219486911457
  H      -2.35681751309077     -4.25379715166847     -2.20722168551281
  H      -1.38776274088742     -2.80891877986110     -2.65379774157414
  H      -3.15058233848178     -2.65282507302775     -2.32554352496967
