31
Coordinates from ORCA job orca
  La     -1.22870179610052     -0.00793892750471     -0.58434388622229
  C       0.38215461577993     -0.05096363732790     -3.67095174066638
  C       1.46761990213662      1.00733976391365     -3.76290614650585
  C       1.34601103939146      2.25280273762295     -3.02434875682185
  C       0.34041587065888      2.65762719575359     -2.16260057712630
  O      -0.65140155337632      1.93994893543777     -1.77261288062796
  C       0.38793425483362      4.04220798821852     -1.56798771386582
  O       2.44523813174193      0.79116065065614     -4.47240626278097
  H      -0.63349704618341      0.37265286131696     -3.63755845086441
  H       0.53667181167584     -0.67639094971090     -2.77160065734309
  H       0.48303380272960     -0.72232777914776     -4.53504164597821
  H       2.14917281541373      2.96270270181752     -3.24190868838413
  H       1.25062848556700      4.62937633132577     -1.91232584763770
  H       0.40940110382404      3.95809978570102     -0.46815980908870
  H      -0.54303967237666      4.57401230940851     -1.82418341784003
  C      -2.73376639939982     -2.88800807883249      1.73445823476864
  C      -3.70324517267873     -1.78845525963805      1.35828428172670
  O      -3.05408418604888     -0.53919278779017      1.18900990029418
  H      -3.25185460234153     -3.85941650831524      1.78126338672660
  H      -2.27887050357040     -2.69845014130978      2.72170559511725
  H      -1.92286434843197     -2.95388111971144      0.98935144040709
  H      -4.50889776258076     -1.68432273368326      2.10937290599984
  H      -4.18070413732617     -1.99658244322450      0.38711080561400
  H      -2.59637708766922     -0.23885458406691      1.99889593123778
  N       1.43630862122265      0.23427730897275     -0.43408172893239
  H       1.59000325137281      0.57137061686848      0.51826912597625
  H       1.85906696873572      0.89741618279875     -1.09215355235712
  H       1.89283499488125     -0.67191016093434     -0.52917851280042
  I      -3.71334611521016     -0.53881197395527     -2.49358403460033
  F      -0.41169417022487     -2.03771309474197     -0.55441837543756
  Br     -0.62315111640324      1.12142481003117      2.15063107806101
