42
Coordinates from ORCA job orca
  Fm      0.70649312194317      0.68327523897656     -0.10687527256387
  C       0.60125363965406      0.68191143903130     -4.67554911594974
  C       0.49868989707230      0.06422460235789     -3.31325290666497
  C       0.28425156415961     -1.32141080115183     -3.18479699805594
  C       0.21739024904906     -1.98235233109598     -1.94656792763917
  O       0.32907189533862     -1.39436463351303     -0.82701982443917
  C       0.00225046257197     -3.46449003981536     -1.89288891163028
  O       0.62034198619446      0.85783781871301     -2.33276344106075
  H       0.43226158036084     -0.03639263253768     -5.48779697176275
  H       1.60390872658413      1.12661745614745     -4.78242896173641
  H      -0.11871395168051      1.51163586141624     -4.75371227496778
  H       0.18816188802901     -1.91523635868435     -4.09427421835152
  H      -0.09974888594479     -3.92032729726772     -2.88596374533510
  H      -0.89795776716277     -3.67299985395285     -1.29304401701215
  H       0.84781377736198     -3.92562563492696     -1.35819916314501
  N       3.44064785702095      1.26073213266009      0.26994123499596
  O       2.72158243915818      1.87159519299125     -0.54291873431109
  O       2.82764452215158      0.33929535552837      0.86733964041643
  C      -0.84645226648571      3.10746000677123      1.86575175211057
  N      -0.29126672066257      2.35334601197188      1.14704511156937
  C      -2.51170237837647      0.60403935431762     -1.64145083719821
  O      -1.70790561250028      0.82925470461609     -0.50247583451599
  H      -2.38721366167056      1.40487530581071     -2.38936259625719
  H      -3.57514190270808      0.52425008138458     -1.36287557165019
  H      -2.18960575722440     -0.34542284903996     -2.08997098944062
  H      -1.93001101967217      1.65645574409914     -0.04322502847493
  C       1.74968531755343      0.94091851574659      4.03747129532025
  O       1.37507777336661     -0.37537861563577      3.66754092321688
  P       0.20255628703921     -0.60964371050070      2.57188424716366
  O       0.16372201354690     -2.22410240176446      2.56775289265402
  C       0.15060039177572     -2.97070649816084      3.77511846007060
  O      -1.06586518989585     -0.16869161640726      3.50551731696107
  C      -2.32514303952681      0.13088966446713      2.93541396698952
  H       2.49410594097607      0.84861022128428      4.83965623982245
  H       0.88138301704629      1.51019905808026      4.40693893235119
  H       2.20687188721959      1.47538363661328      3.18889723801256
  H      -0.14023116845663     -3.99821759859573      3.51758546280556
  H      -0.57619995107412     -2.55123921026001      4.48955364489159
  H       1.14896906459818     -2.97300026723856      4.23761342497978
  H      -2.62399455664959      1.14341333829285      3.24534707487350
  H      -3.06908669168544     -0.59977566123288      3.29101300462784
  H      -2.29699477839515      0.09975727050417      1.83253147833002
