41
Coordinates from ORCA job orca
  U      -0.15839292182448     -0.15710285892436     -0.38254670266801
  N       2.29977465847297     -0.18327467434994      0.08315851893606
  C       2.59745787104847      0.20818130114191      1.50433864092889
  C       1.50805175675624     -0.29586286121605      2.42631394003841
  N       0.12978320937379      0.13288978532559      1.99496510476700
  C      -0.28925412916300      1.51434253829077      2.42591820035058
  C       0.21412357219921      2.59941223374595      1.49839926639565
  N      -0.18823463126706      2.30094302241931      0.08057282385104
  H       2.71534182627167     -1.11278034356432     -0.08014461521539
  H       2.86060038911259      0.41426211204468     -0.54628116441034
  H       2.71744236388076      1.29958472726894      1.54535006053155
  H       3.56918295103609     -0.20968927455766      1.81824783871867
  H       1.69586311190471      0.04107759414585      3.46098022070453
  H       1.50799567324983     -1.39988674092254      2.45886768987285
  H      -0.51029997301107     -0.50274445939302      2.49226864171536
  H       0.05510003080997      1.70272207477978      3.45802237579323
  H      -1.39298913724965      1.51994876537087      2.46545695766109
  H       1.30635412585655      2.71426185866923      1.53154417154491
  H      -0.19697535085186      3.57379593619257      1.81311195688025
  H       0.40320920169231      2.86279707470436     -0.55371320896128
  H      -1.11993504048560      2.71443677242570     -0.07523206969372
  N      -2.42945459506266     -0.58044926044528     -0.20991285338002
  C      -3.31813667392557      0.44157751306859     -0.33485970783173
  C      -4.68540698874024      0.25955562353592     -0.22439824598018
  C      -5.16177180227138     -1.03290099494794      0.02849906321642
  C      -4.25580443702302     -2.09633357224610      0.13666868255955
  C      -2.89468588402925     -1.85582974163159      0.00160561096817
  C      -1.85506727911169     -2.89465601854398      0.00152652827353
  C      -2.09447796303422     -4.25599028854527      0.13639223392601
  C      -1.03031022310328     -5.16107063879045      0.02809637157018
  C       0.26179758314025     -4.68363696171099     -0.22462491576892
  C       0.44273082450588     -3.31620629878479     -0.33486458218934
  N      -0.58005741018807     -2.42840079190353     -0.20992475522188
  H      -2.92001131540128      1.44136154475484     -0.55230933727882
  H      -5.36774099781245      1.10823484442256     -0.34037161541983
  H      -6.23871378648536     -1.21762377033992      0.12564572117379
  H      -4.63369651077218     -3.10784138160160      0.30823445294102
  H      -3.10568230698667     -4.63473051978375      0.30788377713969
  H      -1.21417840773137     -6.23817734723019      0.12505472809334
  H       1.11102551872157     -5.36528570522086     -0.34061277316923
  H       1.44224309749857     -2.91721081765330     -0.55202703136310
