35
Coordinates from ORCA job orca
  Bk     -0.27512748864271     -0.63258441460030      0.15143276216110
  N      -2.43484467895234      0.07196589057206      0.56103132634531
  N      -3.62196805790519      0.11031504109265      0.65828305106872
  N      -4.76708038252539      0.16429486411099      0.75625895251088
  O      -1.53190043064257     -2.53997299600977     -1.06922022346754
  H      -1.81874346763996     -3.01245375125163     -0.27578182031655
  H      -0.57458806701237     -2.80950416866605     -1.15266781166929
  C       0.06498680444757      0.72864986599597     -4.96403937037709
  C       0.95028559924591     -0.19151305596023     -4.40827577802378
  C       0.77319808077438     -0.57241714558714     -3.08005532217350
  N      -0.21898185975010     -0.07983926052094     -2.33522367389048
  C      -1.07170035648860      0.79943627793873     -2.86073389610420
  C      -0.96953753573043      1.23307071709753     -4.17919872566583
  H       0.18032803519287      1.05246809980808     -6.00273810221111
  H       1.77515447779490     -0.61018488331162     -4.98924127457338
  H       1.42366555020213     -1.29673973574789     -2.57177837205655
  H      -1.85711888620258      1.16674459869148     -2.19072468649915
  H      -1.68579704891977      1.95654516245738     -4.57477447413092
  C       0.45575686478011      1.87390705095537      4.16362153129288
  C      -0.01243375456994      1.37707653114494      2.94890457435593
  N       0.54746923004560      0.30326564939477      2.39301708545460
  C       1.57240486463826     -0.27570783572966      3.02318062365434
  C       2.03107452610664      0.25173685125366      4.23232007770987
  N       1.47761781926598      1.31542889692268      4.80710306430101
  H      -0.01495858779133      2.75131000094426      4.62209654911275
  H      -0.84309255052176      1.83921000254159      2.40549075848472
  H       2.01296827477287     -1.17015936485187      2.55083741871979
  H       2.87779395419720     -0.21740201527052      4.74610607674205
  O       0.02782863183005     -2.47308338432346      1.46945478533720
  S       1.22080353563487     -3.20473255539974      0.68881641565170
  O       1.02390939495382     -2.44375235328777     -0.72487500958796
  O       2.49597262654618     -2.69986688887328      1.28506595809143
  N       1.33882380029548      1.83188367603654     -0.30858862423526
  O       1.81578719427532      0.68142323053014     -0.29961583216377
  O       0.10814388829487      1.86458140190304     -0.08708801384791
