46
Coordinates from ORCA job orca
  U      -0.33452540845104      0.39443570055629     -0.50064648860183
  C      -5.35274899846445      0.66586876495805     -0.80238985437365
  C      -3.93395448457661      0.87580983649499     -0.63884368676158
  N      -2.79226147529570      0.99230148072547     -0.53360261001430
  H      -5.68942782291657      1.10781725459894     -1.75178045774264
  H      -5.91181993498851      1.11849736667914      0.02891887465319
  H      -5.51351809849077     -0.42396564096081     -0.81757717736760
  N       0.29423813078261      3.19806941767709     -1.09432647688635
  O      -0.73712727304194      2.82330555132791     -0.51140577792420
  O       1.04913907087699      2.22466717320133     -1.33002310624139
  C       3.85652376947625      2.41907307169448      1.85764602304551
  C       2.50318525041864      2.52099992333393      2.51024341814454
  O       1.45319536285509      2.62511954881964      1.50980000660993
  H       4.63842156807362      2.41430829348755      2.63261333314584
  H       4.03365286954405      3.27441863041922      1.18901591485943
  H       3.94660330696774      1.48852286883988      1.27770975690423
  H       2.39517203132857      3.43861461150235      3.10350322915555
  H       2.27988262115781      1.64693212237292      3.14215177325576
  C       1.73883732134181     -2.73915692567502     -1.97281694270740
  C       1.90030685007576     -1.27135263707148     -2.29734587823216
  O       1.18567414836787     -0.48875252149887     -1.37825987918551
  H       2.31459097193961     -3.34737308906739     -2.68735342676243
  H       0.68173914425879     -3.03852488678450     -2.02667515875645
  H       2.09655537040319     -2.95257260366509     -0.95362729562443
  H       1.51225414185476     -1.02461942499535     -3.30255871877847
  H       2.95810483258624     -0.95823809468089     -2.25231744329724
  H      -1.05599083569116     -2.82872188919285      0.14524170481620
  C      -2.19253361096761      0.88543422882371      4.17046962954589
  C      -1.73911201024953      1.03924183148549      2.80855496766855
  N      -1.36361924164694      1.12637808088046      1.72165076903879
  H      -1.65541875086539      0.02672941808470      4.60194260453901
  H      -3.27401667941746      0.68630224122278      4.18718541399640
  H      -1.98070426964063      1.79409145225052      4.75228521273158
  C       1.04496236671402      1.53269523160972      0.97260575555859
  O       1.39809394575489      0.39022118956267      1.21999155882915
  O      -1.44759037375593     -1.11282185691626     -1.36628634305764
  S      -2.47939769163547     -2.40028697913965     -1.38872836797324
  O      -3.62184391280173     -2.00125405974132     -0.55168500434735
  O      -1.51547391785899     -3.38206575878385     -0.54469324361808
  S      -0.99229075514511      0.89882995288916     -3.12811071726623
  C      -0.28475604811270      2.25435841985511     -3.81203527947733
  N       0.17691831283535      3.18309869866642     -4.34634856233464
  N       0.17978917825973     -1.75538791504704      2.03358007786984
  O       1.02165577481315     -2.59653013262395      1.87059210591591
  O      -0.53882557308778     -1.41964827914162      0.96562714422469
  O      -0.09383917358441     -1.21566966703421      3.08070862282341
