27
Coordinates from ORCA job orca
  Bk     -0.19282645321455      0.33435939525317      0.87553049076696
  N       2.27812577960747      0.04218064800613      0.32452038345910
  C       3.02022778546795      1.14832979405264      0.27558107810882
  C       4.31617558556747      1.14835373002764     -0.23457452264987
  C       4.83974432076260     -0.05312216669219     -0.70152972913091
  C       4.06556596633910     -1.20807772746009     -0.63417034970369
  C       2.77491391669350     -1.12684478313191     -0.10652774569624
  C       1.88048559907990     -2.30292140424444      0.04560257577232
  C       2.23288892654649     -3.59636461135020     -0.34638675128538
  C       1.33102125885059     -4.63425744546158     -0.12572174056130
  C       0.11210575490298     -4.36209108120000      0.48700285085953
  C      -0.16575563388840     -3.04561771983333      0.84684315441611
  N       0.69478894474934     -2.05462734051852      0.61765314493848
  H       2.52871415500314      2.04321589983295      0.67765612831040
  H       4.89572022593994      2.07316151872827     -0.26154295258569
  H       5.85142029095861     -0.09661405935166     -1.11276563104668
  H       4.46796754957324     -2.15847548524038     -0.98715909045898
  H       3.19502840569690     -3.79865158829642     -0.81855791204214
  H       1.58547754263872     -5.65305841398250     -0.42873810037695
  H      -0.61778718531383     -5.14927164776819      0.68608872468735
  H      -1.09383343985140     -2.73941182584183      1.34460960527860
  N      -0.98939728773174      0.69694422146207     -1.19223174533603
  N      -1.36892710831195      1.13047443938433     -2.24188263853050
  N      -1.72436288901978      1.53335878660475     -3.25197602709205
  O       0.48569254055541      2.10056770387609      1.77487014195334
  H       0.48046530730566      2.83615408458402      2.38716780213569
  F      -1.46593985890748     -0.78679292143873      2.10063885580971
