43
Coordinates from ORCA job orca
  Ac      0.47449929503291     -0.61861134954186      0.29774805118679
  N       2.52273116134167      0.75374411686096     -0.86713726097396
  C       2.68757314556240      2.13051330899548     -0.40705225187265
  C       1.34459629287518      2.83767563273718     -0.40432811984896
  N       0.40956414727989      2.18228879876364      0.50062473337369
  H       3.37105134076706      0.20040822338092     -0.74202582902846
  H       2.31370360434894      0.72313352945792     -1.86719786360080
  H       3.40858302379325      2.70344569442385     -1.02047634219936
  H       3.08782395804504      2.09986713417625      0.62092189264128
  H       0.91313105725674      2.80073918022137     -1.41970409302908
  H       1.49847683012392      3.90661647800972     -0.16453227533982
  H      -0.55382561903829      2.39722867071455      0.21183012841154
  H       0.54361960774458      2.50710799022615      1.46459273860075
  C      -2.92053294836947     -0.45834078318824     -0.83646948793278
  C      -2.00229059235257      0.75943558234820     -1.00236374142214
  O      -2.36376219382394      1.86260154588082     -0.59715634400067
  O      -0.84597697799756      0.46904258916280     -1.47384104146597
  N      -2.10100867083866     -1.61399385918149     -0.46998553455998
  H      -3.50196880062721     -0.60425123019842     -1.76614329938163
  H      -3.64612573950187     -0.24267354582885     -0.03862030010345
  H      -1.76482060243840     -2.10525863996456     -1.29887376669225
  H      -2.63241476420733     -2.30267373230723      0.06047657446583
  N      -1.45937931051939      0.38405504554355      2.08983920680662
  H      -2.04918773848603      1.03843150268566      1.56516108074814
  H      -0.96314774169034      0.94303906343735      2.79857815243508
  H      -2.09200883735539     -0.22910198487214      2.60548877035294
  C       2.60071079568866     -6.77952821975764     -2.85273081319324
  C       3.17797447328377     -5.56381531171199     -3.22235087835240
  C       2.79208587380305     -4.38934900829053     -2.58312148123464
  C       1.82476662274130     -4.42826284723344     -1.57399309038615
  C       1.24812462268069     -5.64768575495820     -1.20528950451324
  C       1.63710831197610     -6.82166076876048     -1.84399882103046
  C       1.40060607707827     -3.16673662299005     -0.90041522712015
  O       1.95440226317642     -2.07581439122550     -1.23062271229314
  O       0.48648103646224     -3.20487985145419     -0.02745200892454
  H       2.90443074518728     -7.70210966454143     -3.35512694763686
  H       3.93212367121192     -5.53437220122105     -4.01315952472068
  H       3.22618775931011     -3.42349604401118     -2.85140591832153
  H       0.49672964915418     -5.65036697052643     -0.41194200237885
  H       1.18906529290391     -7.77641380981322     -1.55590499840365
  S       1.03760244058298      1.99624818240264      3.96733014625415
  C       1.56009491459143      0.72526265852439      3.10417007519956
  N       1.88100252324243     -0.19368833637497      2.42265992948524
