44
Coordinates from ORCA job orca
  Cm      0.30467771640759      0.09500202278385      0.73893046730840
  C       1.49211182534178      4.50489805523726      1.46591870620765
  C       0.53720824641588      3.39144644087501      1.15608443379097
  C      -0.84201813332142      3.66981817345101      1.01896885015668
  C      -1.79816016541274      2.72492195058833      0.65143478396754
  O      -1.54734460812682      1.48605504211380      0.42289877996184
  C      -3.22394524588637      3.14440156815069      0.45556971745642
  O       1.03915635468434      2.24428317380986      1.02097076420320
  H       0.99270935698716      5.46888503482888      1.62648422843778
  H       2.20285988554060      4.59638313928201      0.62865242539819
  H       2.07841687937076      4.23465382788353      2.35799366913628
  H      -1.17222324504424      4.69839910145432      1.16701518210022
  H      -3.40483145105189      4.18547134083580      0.75225361116032
  H      -3.88951851104497      2.47813456986533      1.02709925985267
  H      -3.47463103687784      3.02316871779861     -0.61086885227831
  C       2.35851155984774     -0.02820695886481     -2.18351327080335
  N       1.69693172284479      0.13597077868337     -1.22166318392003
  N      -0.79447306006139     -1.38213524608987     -1.05243729585384
  H      -0.14747976067392     -1.39913759744697     -1.84240181280836
  H      -1.71587026578882     -1.11969994109021     -1.39896777291010
  H      -0.86358232890174     -2.32596390934240     -0.67072872152073
  O      -1.87659968292952     -0.95386863177462      1.56702830910600
  H      -1.58777869059075     -0.91435414116528      2.50346603979453
  H      -2.37456759736143     -0.13219687529065      1.42064726617935
  F      -0.36606094752292      1.97504571287010     -4.05040914635095
  P      -0.80071558209799      1.70419337506216     -2.53957931869531
  F       0.04750416702000      2.87812310907519     -1.87162042911018
  F      -2.19246866479364      2.51266406752337     -2.59360329499163
  C       5.52953699382159     -5.07305889976918      0.54479807808399
  C       5.82529765068997     -3.91334210255594      1.26096545091680
  C       4.86671501024019     -2.91323580709105      1.38646496604878
  C       3.60742043030911     -3.07775652646064      0.79558295694341
  C       3.30790072305235     -4.25045907785686      0.09282227695605
  C       4.27244836432749     -5.24193566091219     -0.03801423375909
  C       2.55575805454498     -2.05372719294021      0.92219452786438
  O       1.36916960233034     -2.26902461884868      0.76168230034424
  O       2.91008864825472     -0.81069543621869      1.24868860869213
  H       6.28536748400071     -5.85642387721421      0.44440920318948
  H       6.80398083809492     -3.79153409908699      1.73093338814987
  H       5.09237178049204     -2.02190263882388      1.97989850661104
  H       2.31467596052015     -4.36050942290154     -0.34790361781726
  H       4.04525759998162     -6.15368771508333     -0.59558385227857
  H       3.82736619317656     -0.60033048527803      1.02312219043064
  Br      0.42972592919060     -0.24483234006620      3.55161585464869
