36
Coordinates from ORCA job orca
  U      -0.32478307706018      0.34156226018574     -0.07804637310576
  C       1.25717470209271      2.38880867777461     -0.62669777477671
  O       1.96775945436003      3.18757803494911     -0.95705883829458
  C       3.42707922195073     -0.18757850066670      1.27984344733181
  P       2.43865233871478     -0.52011288571588     -0.20945531013837
  C       2.09330297251659     -2.31410285318880     -0.24429296747770
  C       3.46790832301268     -0.14188253899541     -1.65267041163146
  H       4.34741001454588     -0.79705013439511      1.23400746377209
  H       2.88842720934647     -0.45447937857732      2.20280810254593
  H       3.72285984577567      0.87281208720774      1.32120347748324
  H       3.05743667504798     -2.85555273156781     -0.26563426610948
  H       1.53287663528003     -2.59774044793996     -1.15056957388365
  H       1.55470842359426     -2.64889292692031      0.65773656816632
  H       4.39290262913203     -0.74063233216831     -1.58161625190672
  H       3.74893525874079      0.92249970706022     -1.67089710655584
  H       2.94459033069104     -0.40194084520798     -2.58502429382825
  Br     -0.26928329480371      0.22820737429164     -2.62250557895805
  C      -3.21241854454861     -3.35288417591748     -0.26188467800622
  C      -2.50274202011325     -2.21729349884551     -0.67038241652178
  N      -1.67190417935184     -1.60547415755216      0.19428463223126
  C      -1.54744085066091     -2.11396380056875      1.43841390156002
  C      -2.26756914819738     -3.24617069859374      1.81956752323753
  N      -3.08807544945687     -3.84472863329873      0.96335591849849
  H      -3.89256485064182     -3.86402661685100     -0.95462450368155
  H      -2.59941829457780     -1.81022385996287     -1.68174474451356
  H      -0.86770111747293     -1.61731093943720      2.15207863366757
  H      -2.17685530825925     -3.66608817151211      2.82885920987828
  C      -1.52692980430031      1.97597376583137      2.11098473103595
  C      -2.33910466238596      2.63166863253013      1.02322166705899
  O      -1.93312240716621      1.98657564828264     -0.23419010074998
  H      -1.75782559598349      2.42737158039114      3.09191320535781
  H      -0.43006144126606      2.14840586326693      2.00010572610958
  H      -1.77171456687683      0.89893100088348      2.24867939240773
  H      -2.12950105766174      3.70903072899854      0.93885150512865
  H      -3.42054399780779      2.47551182412667      1.15602336092779
  H      -2.36756436620876      2.38179294210321     -1.01514327625941
