55
Coordinates from ORCA job orca
  Es      0.23832447406307      0.19259423042280      0.32894465147563
  N       2.81804064787037      0.21542835546718      0.72657341049158
  C       3.40835872165317     -0.95664327061687      1.38671419010342
  C       2.33552428428539     -1.82711554877201      2.01793073463650
  N       1.21600993833246     -2.08765744870074      1.10082581906852
  C       1.53467808188168     -2.99562088245693     -0.01209993458371
  C       2.10756920114541     -2.28963138426587     -1.23391655662176
  N       1.28139630144897     -1.15253105104675     -1.63331552432860
  H       3.47404336871557      0.59890036301690      0.04506069788598
  H       2.66776575779432      0.93505606041715      1.44373742401903
  H       4.12853817700050     -0.67034374588106      2.17287514250208
  H       3.98604056017689     -1.53214364029157      0.64862635440984
  H       1.92401878629424     -1.30056679530283      2.89318016158364
  H       2.79636237322924     -2.77006918398599      2.36888925706777
  H       0.47704143421948     -2.52632464146371      1.65110863404712
  H       0.60354248175600     -3.50909930003613     -0.30244310870979
  H       2.23445793605743     -3.78994898137897      0.31099242000697
  H       2.21565053358646     -3.03283005735437     -2.04343624009006
  H       3.12202979969306     -1.92522362501322     -1.02693474812781
  H       0.56834368721480     -1.44146838693002     -2.30691564102848
  H       1.80698361023353     -0.45655125963436     -2.16674067500682
  N      -1.42977038985109      2.06570338152098      0.71553507306784
  C      -0.79425123251384      3.38625578906544      0.69064422081109
  C       0.13230129151777      3.49312176516350     -0.50108095251121
  N       1.13094779551463      2.40966807960371     -0.47580975313937
  H      -2.18409687702400      1.99408071983062      0.02489834268816
  H      -1.83951997411459      1.90722920566852      1.63658284428559
  H      -0.21401331202493      3.48576816228131      1.62193858456490
  H      -1.53043300839048      4.20879013377886      0.66485613207394
  H       0.60988655510708      4.48739970911815     -0.51664129172995
  H      -0.43847023712218      3.40781816689157     -1.43897671393430
  H       1.93953828831388      2.70895843215105      0.07018903126608
  H       1.43798314882434      2.22310021470329     -1.43641428944145
  C      -1.39757539798468     -1.84435887562750     -0.77179066432653
  O      -2.01631253468789     -2.66075399435820     -1.24156587470053
  F       0.59100097711177      1.11169939784673     -2.87464758308386
  P      -1.02247106526475      0.81085171460829     -2.20559911900433
  F      -1.17108143994989     -0.36819419951789     -3.31171182290479
  F      -1.48279123909361      2.11301047997015     -3.03876260204421
  Cl      0.76833106247408      1.14541298374197      2.75379853532556
  C      -2.60725073001343     -1.51944962579526      3.88371775148716
  C      -1.52946164676367     -1.12317885611841      3.08971854474632
  N      -1.71568206489929     -0.69761287084492      1.83741575958579
  C      -2.97818163790838     -0.64306731584074      1.39218875141997
  C      -4.04420155334600     -1.02611295090341      2.20581026615901
  N      -3.85857066101113     -1.47134070974714      3.44366392941790
  H      -2.44051323137795     -1.87626585852062      4.90599841758387
  H      -0.50790023661518     -1.10652417804034      3.48140832813780
  H      -3.13284249124099     -0.28058666668561      0.36654135946414
  H      -5.07341745162670     -0.97019144711457      1.83449125300057
  C      -3.77219513369462      0.54335001443140     -2.47039681297208
  O      -2.62831940220852      0.56541750120987     -1.63407278994900
  H      -4.65797682327032      0.36297313614187     -1.84214817657218
  H      -3.69660139462076     -0.26097044573804     -3.22047125755687
  H      -3.89650810889668      1.50518920093273     -2.99296389001607
