32
Coordinates from ORCA job orca
  Es      0.00016027999445      0.01414071324135      0.27422310743119
  N       2.46643777306073     -0.12908611498196      0.33301456284224
  C       2.97977014944398     -1.51855323089361      0.34463612012606
  C       2.06503062323961     -2.39478426998046      1.17133677589287
  N       0.69239135303331     -2.33779904326362      0.62156465585232
  H       2.97002200799009      0.41776251706980     -0.37179317430071
  H       2.71372100374005      0.32204995530195      1.22216608895569
  H       4.00933550831533     -1.56936877793199      0.73396843218111
  H       3.01714030110343     -1.87922579169767     -0.69716228287388
  H       2.02879049427509     -2.03603006979826      2.21367772380506
  H       2.45324832422291     -3.42580534071008      1.20114317012544
  H       0.04521215541596     -2.78681043931702      1.27760475802317
  H       0.64159859578542     -2.91473135181624     -0.22462794114798
  C       0.37217288438658      4.62337647515647     -0.10841904275587
  C       0.25429627656386      3.30091631141693      0.32358558998617
  N       0.33771860364939      2.28669039829737     -0.55325428004678
  C       0.53330287055162      2.59375579270115     -1.84621514946797
  C       0.64763496658208      3.92151138575312     -2.25446761393011
  N       0.56757857256463      4.92304611911648     -1.38599848892703
  H       0.30394963547447      5.45077092220003      0.60658114867327
  H       0.08824677901444      3.05382162748469      1.37752391712729
  H       0.59823947665889      1.77567272807725     -2.57296945023492
  H       0.80693705932308      4.17093541127894     -3.30944293656027
  S      -0.79368722532823      0.79713976044974      5.00957722146605
  C      -0.53165793312197      0.57516095255865      3.49203858446142
  N      -0.32428555630319      0.40639018179862      2.30190372286432
  C      -4.22049603950490     -1.74153839598418     -1.74004755395474
  C      -2.95445171451723     -1.29871329463682     -1.21873491776752
  N      -1.93661467821077     -0.94093733426416     -0.79462429477857
  H      -5.00567006711576     -1.58317255604092     -0.98299501368226
  H      -4.16694276984068     -2.81329171127601     -1.98992964071396
  H      -4.46992971044661     -1.16859352930964     -2.64756379867109
