35
Coordinates from ORCA job orca
  Np      0.28094971670203     -0.26040431523768      0.42645280632535
  C       2.66845282210831      1.17330699901604     -1.41283469852885
  C       3.90287938413377      1.96312303911434     -1.05133061909540
  C       3.35690627781624      3.03098227368212     -0.10998082611650
  C       2.40455012874553      2.25311056949472      0.76499641995287
  O       1.84846651380939      1.21263155668976     -0.16578748316859
  H       2.84488295190284      0.11498152347547     -1.65510703823691
  H       2.06380582141216      1.65891095146004     -2.19378319476551
  H       4.38170224119179      2.38350449193737     -1.94781045665932
  H       4.64039450159484      1.32203757063676     -0.54295767066006
  H       2.82664138726594      3.82138251408584     -0.66474628306445
  H       4.14022276845206      3.51110194095397      0.49494868064302
  H       1.55207364485115      2.82616433016085      1.15937045936034
  H       2.90653285828989      1.70860686976083      1.57816671984966
  F      -1.43532700965370      1.45302924093633     -0.34972290994966
  P      -1.67568168734981      1.39129380356017     -2.01525208808683
  F      -0.74386861270970      0.01454143807557     -2.00672482878204
  F      -0.50120184472150      2.37121125055274     -2.35456176220368
  C       0.81968458091514      0.00036333816022      2.64328370135206
  N       0.98778208964924      0.22844089232055      3.77644033507020
  C      -1.89298633426505     -2.84251694721204      0.48735613249722
  C      -2.81774749542886     -3.38845787902697      1.55047014552179
  C      -3.44247103199383     -2.13358792268583      2.15016696343924
  C      -2.26286891205541     -1.20021769353563      2.25990170887087
  O      -1.45321757069069     -1.52455895745770      1.04241810259004
  H      -2.40788462885731     -2.62048381853954     -0.46014702170842
  H      -0.98734325140544     -3.43720645564095      0.30407606559190
  H      -2.24868408969418     -3.94816054952227      2.30924998878865
  H      -3.56137484757124     -4.07237522399021      1.11586230275023
  H      -3.89636920208713     -2.30986872242814      3.13650434963979
  H      -4.21979124607203     -1.71406073529173      1.49149633997895
  H      -1.62268121532473     -1.40674107577786      3.13022511168280
  H      -2.50708439945426     -0.12695544425480      2.21375472111015
  C       2.17164216776449     -2.86219149843534     -0.45565805178435
  N       1.49321352272992     -1.93543735503690     -0.11213612220474
