44
Coordinates from ORCA job orca
  Am      0.42038008364363      1.22999982010633      1.10734178419124
  C      -1.19475005564436      1.67296119805834      5.29356294474366
  C      -0.84690256180849      2.16615980752555      3.93820469529967
  C      -1.00725365628651      3.50890562755286      3.57949975570097
  C      -0.67339598166963      4.02943029462183      2.32279598485517
  O      -0.19108270896140      3.28439476037604      1.37853732050133
  C      -0.85140785468151      5.46699373648142      2.00292064152225
  O      -0.38288546454538      1.28573184565760      3.10617559436077
  H      -1.61107099154494      2.45894794333815      5.93426982920478
  H      -0.29142239571512      1.25544116745152      5.76965562472363
  H      -1.91590995773105      0.84338188229448      5.20894552707855
  H      -1.40683445344822      4.19420986250104      4.32700374775106
  H      -1.26837915459241      6.03698567709014      2.84121268398290
  H      -1.51081842179406      5.56582173697573      1.12457108504794
  H       0.12137864461964      5.89840670003723      1.71340181196846
  C       3.25168782353410     -1.83728559374827     -2.20132126898595
  O       2.51400127180431     -1.00775510836965     -1.27895637638280
  P       3.24506880666832     -0.16451263753204     -0.11647721456632
  O       2.41915085629727      1.31387974089843     -0.30404705706546
  C       2.94901557643818      2.25271393174495     -1.26722161095876
  O       2.15904778313612     -0.48527961965276      1.15954897351910
  C       2.37118840563037     -1.69296580950138      1.92295079400634
  H       2.89129631684920     -2.86919058755821     -2.09988259002867
  H       4.33252844338345     -1.80024386497655     -1.99350014046860
  H       3.05819724704005     -1.47478972239110     -3.21913327265128
  H       2.74491267805546      1.89869623045620     -2.28807459441421
  H       4.03113438593755      2.37806031601909     -1.11161626111064
  H       2.44805214563526      3.21475132684676     -1.09828555719957
  H       1.73746680515055     -1.63274636157757      2.81755604435793
  H       3.42468567620951     -1.75999346216545      2.23402886339491
  H       2.09129740896813     -2.57070626873004      1.32223848105720
  C      -1.18753114634990     -2.01647705850053     -0.47812426528238
  P      -1.69485841968478     -0.26845407933797     -0.30217950103771
  C      -2.06339805213683      0.27685920445350     -2.00459136057507
  C      -3.31211317363680     -0.32614589979097      0.53890612404007
  H      -1.95024053399351     -2.58593254187375     -1.03361497030400
  H      -1.06287994684408     -2.47784185320095      0.51431886103125
  H      -0.23096606881837     -2.07288713356876     -1.02125110244797
  H      -2.82023500147731     -0.38392582961429     -2.45752446554307
  H      -1.15273365829349      0.24520581718154     -2.62238562927644
  H      -2.45235186078754      1.30661943297626     -1.99947906015163
  H      -4.01103770633189     -0.96783416570944     -0.02141308521654
  H      -3.73768335627324      0.68664042703470      0.60829802192885
  H      -3.19664777595032     -0.72893088988018      1.55683418939888
