33
Coordinates from ORCA job orca
  Es     -0.16838709137103      0.55519510232233      1.22679510778521
  C       0.00728301269950     -1.58877255896322      3.89966507376205
  O       0.14476487370336     -0.25671273685324      3.34142217201142
  H       0.95382840176885     -1.89218077699809      4.36705066097663
  H      -0.23105472318154     -2.26960919373461      3.07142088456455
  H      -0.81260559255633     -1.60060715316623      4.63033718444950
  H       0.32671381474804      0.38317564978262      4.05042394343578
  C       3.86070191579005      0.92311453069707     -0.93008619127385
  C       2.71502208990766      1.10710403039475     -0.15389898978640
  N       1.77787140075732      0.14460596784632     -0.08694955596815
  C       1.98367268174865     -0.98546064151842     -0.78609238366645
  C       3.13649610860663     -1.14330687192699     -1.55295614098802
  N       4.06116513682374     -0.19225024381655     -1.61969933660524
  H       4.62499982632684      1.70615978154290     -0.98725178093382
  H       2.54846188253487      2.03163517053936      0.41046469356047
  H       1.22572079804342     -1.77589733601769     -0.73930357088221
  H       3.30615696807371     -2.06318191872317     -2.12365142451808
  C      -6.44817439049314      0.12769851208424     -2.05720265728541
  C      -5.44646977450569      0.80718706503263     -2.76264231310714
  C      -4.17326627172233      0.89881466135594     -2.22942446129741
  C      -3.89593302880242      0.30666854478037     -0.97588241126269
  C      -4.91076398900097     -0.38267553845934     -0.27538303355417
  C      -6.18155224083895     -0.46694384393625     -0.81988990582631
  C      -2.60074689443022      0.38009606421641     -0.37544012439429
  O      -2.24658493802069     -0.17159629684447      0.68964097865384
  O      -1.59269854145865      1.08468729087118     -0.92409722490894
  H      -7.45314063977403      0.06092783184874     -2.48349155607759
  H      -5.66938654234073      1.26004867121841     -3.73123656891895
  H      -3.40609507874951      1.42083466690957     -2.81237938456255
  H      -4.68447704008741     -0.83670064770330      0.69198279164571
  H      -6.97355769542461     -0.99450591797734     -0.28367789874804
  H      -1.83370886005083      1.63996377783495     -1.68561492481479
  Cl     -0.07705557872350      2.85008435736111      1.91444834853536
