34
Coordinates from ORCA job orca
  No     -0.38720534270645     -0.06175764142966     -1.18211676267083
  N       2.04704801688177     -0.25714151362270     -0.51632315157240
  C       2.23101269891026     -1.37302563783366      0.40473404078947
  C       1.52415247509788     -2.61204938347651     -0.11826509064668
  N       0.08454397823749     -2.38650150654783     -0.21789691462652
  H       2.53449758707556     -0.42012952629506     -1.40040833758346
  H       2.40688158999034      0.61207633215905     -0.12423968476823
  H       1.79217126457193     -1.08134961964451      1.37459126297231
  H       3.29544856509646     -1.61681101211972      0.58455457304502
  H       1.78237853678163     -3.47577947626642      0.52274871994645
  H       1.89669685082112     -2.83965745217965     -1.13187202385265
  H      -0.36696677575118     -2.46128162163087      0.69468512233624
  H      -0.34925677110543     -3.08506475281130     -0.82143319154259
  C      -0.77228961337598      3.50731097485770     -0.75749310385855
  O      -0.05697186741161      2.31177388564498     -0.56151253382160
  H      -0.32476252737691      4.34408085645854     -0.19368963677027
  H      -1.83199492453254      3.41048926148467     -0.46035536617089
  H      -0.73434833127281      3.75804259450732     -1.82756525779635
  H      -0.15547228833910      1.97914817224302      0.36444093962459
  C      -3.53910905790416      0.01152262730700      5.23173469899559
  C      -2.23248503172671      0.49245465257012      5.13560510499701
  C      -1.60170779644185      0.54409008469920      3.89593144058804
  C      -2.27570384339116      0.11522198199984      2.74791196033326
  C      -3.58520076466111     -0.36542569869990      2.84746155531509
  C      -4.21481062188915     -0.41686605572592      4.08808999291179
  C      -1.59491531912183      0.17514725649293      1.41733580693520
  O      -2.21713238895201     -0.21729641283422      0.39614075656702
  O      -0.40363190057092      0.60936607710248      1.36946748848813
  H      -4.03514867593648     -0.02944382154914      6.20544486230687
  H      -1.70572167842986      0.82906215052951      6.03264848564148
  H      -0.58055119135549      0.91730558136123      3.78781700384899
  H      -4.08969599702666     -0.69194177666035      1.93480103685702
  H      -5.23895181650247     -0.79152278544212      4.16686023856551
  I       0.34020296231752     -1.00084679464810     -3.92723403538425
