44
Coordinates from ORCA job orca
  Th     -0.22949113969121     -0.58595927490882      1.30759831411095
  S       1.21970187786831      4.05997033259329      2.35362775915705
  C       0.83856924440209      2.59288633520371      2.01455564372771
  N       0.52292284412209      1.44444824119592      1.73577702506598
  C       2.24927616173550     -0.02511289027271     -0.90447405556135
  C       3.67189137541032      0.22267839033368     -0.46563890659307
  C       4.11786036924952     -1.17002300589529     -0.02935990512938
  C       2.89355334196071     -1.73118707213582      0.67003232093854
  O       1.75257042609199     -1.00790704864799      0.06870390961857
  H       2.17905216963822     -0.48200153854807     -1.90395613796549
  H       1.59173168145650      0.85944003882650     -0.84616045828332
  H       3.69728113523895      0.93587063409157      0.37474737802371
  H       4.28758159098867      0.63408306417956     -1.27825746891505
  H       4.99213427303761     -1.15240937810535      0.63682223990296
  H       4.37682783484703     -1.78824941804544     -0.90283256651826
  H       2.88762844359077     -1.50878916926049      1.75250779321180
  H       2.73207444955682     -2.80679366088312      0.51104074745203
  C      -1.92707148430963      2.43427697735066     -0.79685741601686
  P      -2.47341967850023      1.22747260858951      0.45887173224340
  C      -4.01069078472959      0.50125202393669     -0.20142153516850
  C      -2.99571098421877      2.23862135024535      1.88468553448260
  H      -2.74273801857822      3.14330741393639     -1.01344555194082
  H      -1.64968711147803      1.92790070576484     -1.73448535055433
  H      -1.06021210089762      2.99999878532594     -0.42158571776875
  H      -4.73222069887560      1.29843360364209     -0.44314557583899
  H      -4.46813124921109     -0.16613031863534      0.54556561406541
  H      -3.80446101802537     -0.07396649470000     -1.11700909345781
  H      -3.78266036555942      2.94380212344989      1.57096858580708
  H      -2.14158096197509      2.81205761879206      2.27627082128068
  H      -3.39602528959936      1.60246119389112      2.68952078283173
  C      -2.37210552727685     -3.21427589341067      0.87213911309145
  C      -3.02380187390534     -4.03835492574439     -0.21451706832162
  C      -1.89684561925950     -4.20335661420642     -1.22757093474053
  C      -1.26806495621493     -2.82793363286429     -1.23372322434497
  O      -1.40214297206783     -2.36048067346313      0.15031089048232
  H      -1.80028805250952     -3.82105192255501      1.59076991921411
  H      -3.06061556079475     -2.55338409110916      1.42019166521198
  H      -3.87620631535020     -3.49878735894777     -0.65784643985278
  H      -3.39918387437439     -4.99537830892768      0.17528645823688
  H      -2.25011743684344     -4.49680303587407     -2.22620273666796
  H      -1.17091741289910     -4.96074089084388     -0.89050403418269
  H      -1.81461261879356     -2.12129074496326     -1.87981703869931
  H      -0.19756378243439     -2.81558316171427     -1.49034656922597
  F      -0.61349033082183     -1.63111091668601      3.02826353759081
