41
Coordinates from ORCA job orca
  Es      0.07112716006587      0.09924719447077     -0.19379607693194
  C      -0.92904678387363     -0.39331763082813      4.39664009137305
  C      -0.94144178461431     -0.34986769643272      3.00203418789125
  N       0.13762830217687      0.05876046384564      2.33643454262314
  C       1.20917268103187      0.43128931976708      3.03287676903553
  C       1.19993100733663      0.37444655853238      4.42603835711926
  N       0.13656188274888     -0.03915199198241      5.10968100688479
  H      -1.81618206968489     -0.72764648110621      4.94672295997420
  H      -1.81011764484767     -0.61390115046811      2.38476020896085
  H       2.07105830262189      0.78430970346997      2.45483526962307
  H       2.08501316973333      0.67619945412553      4.99797035917417
  O       2.05718134150855      1.21646121454480      0.01224083907083
  S       3.12120514926298      0.00621277591379     -0.01507283091478
  O       2.04974141395919     -1.16549047802327     -0.22615992782570
  O       3.90760295765496      0.12248790943904     -1.27268091930684
  O      -0.12597162702992      2.50691796772160      0.68600538491443
  H      -0.67365082886982      2.55034008977249     -0.13384149654254
  H       0.80647950085674      2.57281968031420      0.40654983685194
  O      -2.13992204937345     -0.27353881825808      0.24146643203000
  S      -2.81476315480291      0.84496503343978     -0.68313841192990
  O      -1.44104595225149      1.44925877235240     -1.30418056009870
  O      -3.51986067058678      0.13945024338278     -1.79318353334322
  C      -0.82750968277849     -3.14438930388279     -0.38610023395880
  O      -0.07278274877353     -2.29565043476816      0.44375795623212
  H      -0.77997869035017     -4.19285243385853     -0.03746405514232
  H      -0.48308553387369     -3.09663742851670     -1.43416383900014
  H      -1.86973362260498     -2.79298574500446     -0.34961498662048
  H       0.89277884658322     -2.32025039352096      0.23605016090530
  C      -0.92989170937760     -0.70847387555264     -3.39697839659033
  C      -0.67913661439017      0.56624196206324     -4.20566414572618
  C       0.82839415820776      0.83006959142564     -4.01520178071139
  C       1.31698728319411     -0.40417315943689     -3.26657837458528
  O       0.17855681036432     -0.79852390290467     -2.49659732281935
  H      -0.91062904120784     -1.61012809714387     -4.04080660625989
  H      -1.86725854900484     -0.67254719582254     -2.81874820614302
  H      -1.27975621950146      1.37963491080851     -3.77501596222912
  H      -0.95840087999160      0.43266208842809     -5.26282264314457
  H       0.99064528054739      1.72338854195639     -3.39078067914760
  H       1.37388610802895      0.98051467303191     -4.95977291568580
  H       2.17724309379991     -0.24606095623180     -2.59693620463878
  H       1.55987140810585     -1.22839097506303     -3.96636425336714
