37
Coordinates from ORCA job orca
  Cf      0.81853203142248      0.88366212568081     -0.12219087002042
  C       7.87282714443596      0.39876428278668     -0.78550837332377
  C       7.03085032957509      0.15729088863636     -1.87290668135744
  C       5.64786535076391      0.23197626270725     -1.71456434396557
  C       5.10113457743688      0.54926182065089     -0.46945441072233
  C       5.94508305812032      0.78850683667202      0.61745133433255
  C       7.32743282041881      0.71349630590950      0.46096999466919
  C       3.60541852139392      0.64219390974730     -0.29063401741088
  O       3.16266556353590      0.94754977859183      0.83404985836444
  O       2.87532005047794      0.41196262109544     -1.29411866292343
  H       8.95935211469776      0.34041640219819     -0.90967937387560
  H       7.45831470475424     -0.09101078785711     -2.84981813347058
  H       4.95224619567027      0.04963058334896     -2.53839403443632
  H       5.47381325951175      1.03193965384442      1.57361692969169
  H       7.98723912665817      0.90128754969249      1.31435708287418
  O      -0.38489800046417     -0.48958727804643     -1.85115856921361
  S      -1.36480190950455      0.71540706644208     -1.74788185160625
  O      -1.60958501856155      0.77208652085352     -0.18935335290524
  O      -0.38318395208482      1.92361238352940     -1.92532084291425
  C       1.02398859336466     -1.24000899177109      1.23921985365939
  N       1.14977256224157     -2.24558119612533      1.82450344674413
  C      -4.10709368172279     -1.22617913822452      0.25362655780441
  P      -3.06751965536645     -2.31898648340035      1.31818879363839
  C      -4.15982081242926     -3.83186707459124      1.35090241325127
  C      -1.83300879031230     -2.87615013527698      0.07330414816122
  H      -4.40066870890433     -1.71357274956394     -0.69440066950848
  H      -3.48245970439430     -0.33909193833204      0.03610625374002
  H      -5.01393746961910     -0.91048807531771      0.79703770771563
  H      -4.48426187766558     -4.13760701136916      0.33847176076796
  H      -5.05516146332860     -3.64508162105985      1.96848572141251
  H      -3.60635995310698     -4.67027270398736      1.80651980951650
  H      -2.29448476670227     -3.51624139990320     -0.70159654135961
  H      -1.00682646090613     -3.40336770659956      0.57465611380971
  H      -1.38372522175676     -1.99278786786506     -0.41617619526789
  N       1.27250485982861      3.53904559319786      1.05232910465863
  O       1.72337623145442      3.24394108899476     -0.06605303407240
  O       0.61056035106718      2.62295048471124      1.59551307354227
