49
Coordinates from ORCA job orca
  Es      1.02052531751594      0.47409735866172     -0.60835989388552
  C       1.22387541907496      0.65842562605200      6.69375324827480
  C       0.84690450288574     -0.44413805276547      5.92280738137506
  C       0.86791374707970     -0.35819715027305      4.53846883596179
  C       1.27630476598481      0.83601274988800      3.91590740512842
  C       1.65040331500297      1.94418798412298      4.70082773238443
  C       1.62251866736616      1.85200731315944      6.08468574597313
  C       1.28643938116047      0.88207810735921      2.46511998876645
  O       0.82992081280084     -0.00292492138401      1.72897397482781
  O       1.80132569289328      1.92605623958242      1.81758882397203
  H       1.20584370050512      0.58915365480998      7.78477937934843
  H       0.53715603920164     -1.37170798054119      6.40967453411331
  H       0.57999173248087     -1.21240738020904      3.92198826417453
  H       1.94708692444345      2.90064836323109      4.25519300182918
  H       1.90784533598360      2.71100183820868      6.69601646536920
  H       2.25238632173226      2.56421397475246      2.39350447581824
  O       3.26901456334295     -0.22828450511558     -0.24523959350258
  H       3.75884173490188     -0.95679059034830      0.15910507826010
  H       3.89688615494843      0.31071487146654     -0.75257075225024
  C       0.65146220802708     -3.93173768044370     -2.23780675763495
  C       0.88788867332544     -2.56302989330409     -2.10867491527144
  N       0.60395795614081     -1.92440086517897     -0.96487865528785
  C       0.08768443630921     -2.64761321368036      0.04003520455870
  C      -0.14999875184411     -4.01374402500872     -0.11380717420936
  N       0.13249692138528     -4.64585185105514     -1.24567174441683
  H       0.88920943878906     -4.45385979822977     -3.17120822167527
  H       1.30456012604673     -1.97482130946017     -2.93215584983869
  H      -0.12905596398932     -2.13155685464507      0.98108013923548
  H      -0.57881471145561     -4.60193248542502      0.70513446971314
  C      -0.81368235703619      3.23379566923648     -0.20263485741923
  C      -2.16162431105976      3.68964187923829      0.31954408278361
  C      -2.45640884015690      2.67102533504979      1.41532452371453
  C      -1.96417223612283      1.38604359948378      0.78781207059728
  O      -0.79918074587426      1.78755964548653      0.01235205063724
  H       0.02621856792495      3.66180772809779      0.36920827862999
  H      -0.65418040439947      3.42607328896656     -1.27413625674244
  H      -2.92416443148334      3.63555694972060     -0.47370891974751
  H      -2.13293548835030      4.72647215389739      0.68331638152842
  H      -3.52038611845109      2.62048103026222      1.68697544221027
  H      -1.88601342925812      2.89845155158113      2.33151836888639
  H      -2.70685087320421      0.95435543157975      0.09558598952440
  H      -1.64237436739407      0.61784831919460      1.50692020569628
  F       2.19747154958140      1.66461980204066     -1.75532176533224
  C      -1.13793216022285      0.02335427396368     -3.43007696015791
  O       0.05898720798392      0.44199239867846     -2.76677234245681
  H      -0.90124917355330     -0.41641988460943     -4.40994525715759
  H      -1.82712505982076      0.87107084805775     -3.55986452037863
  H      -1.61379163396747     -0.74038004984438     -2.80056469750254
  H       0.56441984282494      1.06975050569149     -3.30840240842508
