53
Coordinates from ORCA job orca
  Md      0.03510756411222     -0.35046692010694      0.86084281809871
  C      -2.62467949728018     -1.08792190164248      3.83811197257843
  C      -1.60952734808030     -1.86344258767815      3.16096658088124
  N      -0.79021131406872     -2.42793264498074      2.56647251232066
  H      -2.28712149015276     -0.03820139602085      3.81090062120919
  H      -2.75975007572198     -1.43087830158833      4.87327626414491
  H      -3.56354344383634     -1.16460404601863      3.27140658185771
  C       1.28737808674615      3.14253408532222     -1.85935104550920
  O       0.26180994271079      2.21073590624257     -1.90799887055150
  H       1.56995047016685      3.49893846361709     -2.87061564239082
  H       2.19403056911290      2.73338511389306     -1.37204264414515
  H       0.97314074432023      4.03300225161139     -1.27032282020887
  H       0.68830299049862      0.93655410515385     -1.58395846824808
  O       0.93870168671582     -0.05596404528829     -1.27123248080971
  H       0.34829784619989     -0.60378572683427     -1.80714413995590
  Br      2.06024748389611     -0.69694951709339      2.72747994633672
  F      -2.15567757929809      2.66121063209604     -2.25308621962641
  P      -1.29735903412616      2.77095536650829     -0.88727039992228
  F      -1.34476768891421      1.09816171539684     -0.54847896570272
  F      -2.69908039713343      2.85707404961164      0.02899377176892
  C      -0.59415889707563      5.91584235131678      3.88134179966838
  C       0.25809976367809      5.71919842173470      2.79395003063723
  C       0.37966611905294      4.45465518565895      2.22540590797663
  C      -0.35345050635391      3.38359889267231      2.74359097634734
  C      -1.20858089282659      3.58226228475277      3.82920981367259
  C      -1.32727681744846      4.84699329137127      4.39909955924051
  C      -0.22019255783585      2.03968170873747      2.11657867004084
  O      -0.91664993858801      1.06946891766196      2.52367136621776
  O       0.58386588788964      1.89527003894861      1.15381139629884
  H      -0.69095880743090      6.91070928867137      4.32648101649067
  H       0.82843635759294      6.55860708786644      2.38611066479282
  H       1.03259914223574      4.26525808195873      1.37005060907388
  H      -1.77776100269324      2.73008378900001      4.20751709068007
  H      -1.99778490782072      5.00476221106411      5.24868165729972
  N      -2.37059834017269     -1.68047598277806     -0.16195380784449
  O      -2.43374733800488     -0.90381497978871      0.79474428769565
  O      -1.19342825824431     -1.84341730572977     -0.58254945947394
  C       1.13993728454973     -3.12195304589016     -2.42498952872057
  O       1.75357404267232     -3.63391927664889     -1.26359097530141
  P       1.99214378518049     -2.61610950022237      0.02838029672231
  O       2.60049063076449     -3.77583408208475      1.00451443634235
  C       1.86207127811409     -4.25872654827542      2.10808268121267
  O       3.37987693364259     -1.88412746543317     -0.41270039321352
  C       4.55797013390812     -2.62100217665927     -0.63479163583759
  H       1.15148816027046     -3.92021031294175     -3.18326368304212
  H       1.69190551963200     -2.25306244047058     -2.82785399768748
  H       0.09194085296566     -2.83357829875668     -2.22982160741438
  H       2.47736235563076     -5.03610873958606      2.58610212944675
  H       0.90482242513245     -4.70663855174655      1.79234847547911
  H       1.65830376212481     -3.44973202121105      2.82758127315222
  H       5.25846399878785     -1.96745177269883     -1.17623331792547
  H       4.36053747599948     -3.52326265809257     -1.23936607215295
  H       5.01298283880303     -2.92967099460186      0.32051096799951
