42
Coordinates from ORCA job orca
  U      -0.05460779349798     -0.72612943950901     -0.31129455473282
  C      -1.72289066417841      5.82173801134992     -1.48343832171618
  C      -1.56068751629738      4.96199899252877     -2.57571066271182
  C      -1.27727589314386      3.62239046033208     -2.36103009466986
  C      -1.15284020227851      3.14677570286690     -1.03990978987700
  C      -1.31933494540810      4.01483743897126      0.05809328126097
  C      -1.60431753406744      5.35186374014660     -0.17106281686721
  C      -0.84320631677711      1.76347941475233     -0.80455946706836
  O      -0.67119500051431      0.90179626178047     -1.75375610767412
  O      -0.68162890144854      1.28020472639494      0.38811697062934
  H      -1.94819172797135      6.87738908432183     -1.65887274968978
  H      -1.66075255911872      5.34695973164688     -3.59306727840377
  H      -1.15006204931442      2.93383518014006     -3.19966632863691
  H      -1.22519733139405      3.62585883226556      1.07472116319903
  H      -1.73875183454526      6.03659213619119      0.66932044741711
  N      -0.82896759955087     -2.02147296546523     -2.35156799313657
  H      -1.85338275730550     -2.09013717486058     -2.35163800835329
  H      -0.50153614654960     -2.98748189666720     -2.46062609417936
  H      -0.59896777648308     -1.54435961996889     -3.23029285766915
  C       6.90167230578840      0.68026914156713      1.16443720967496
  C       6.38599654357698      1.37699081609425      0.06451058412543
  C       5.07695129596987      1.16343448564940     -0.33064408726625
  C       4.27155857535780      0.24577193792026      0.37986355079282
  C       4.80027519896465     -0.45209110986848      1.48661953907360
  C       6.11275602197768     -0.23063395292161      1.87275700757587
  C       2.90874571677410     -0.01086264940228      0.01179400107444
  O       2.14017676566038     -0.82173740672234      0.56927917746211
  O       2.31534420992249      0.62639615174287     -1.00741459590971
  H       7.93696968560790      0.85270694177166      1.47167757326978
  H       7.01505111100199      2.08447362234551     -0.48018238367158
  H       4.70650219242890      1.71887087969529     -1.19998210622548
  H       4.16751339252823     -1.15887878191610      2.02824760141008
  H       6.52956256434105     -0.76637081934481      2.72852707686203
  H       2.86075214399559      1.29647608703191     -1.45199084516552
  C      -1.84764473336529     -1.74169134056312      3.16910806786289
  C      -1.98013194614361     -2.47781390707527      1.86135248692811
  O      -1.17849456992935     -1.85619083559493      0.84335351900792
  H      -2.47496039239169     -2.23254154200418      3.92835543186799
  H      -2.18632529538311     -0.69801191956301      3.07886901645803
  H      -0.80923287466586     -1.75593172656022      3.53492217933314
  H      -3.01838591366840     -2.47962890343433      1.49395466916393
  H      -1.63985744850456     -3.52224378606577      1.93852658917514
