56
Coordinates from ORCA job orca
  Th      0.29331676421393     -0.41587371948873     -0.05598542498647
  N       1.86021528521707     -0.49873263540494     -2.22322418102159
  C       2.70555113225091     -1.69646870923628     -2.27227020036382
  C       3.43264704573737     -1.87215506779622     -0.95368059334219
  N       2.46995215850012     -1.95552463549900      0.14143348662905
  H       1.26944780508482     -0.43634722571472     -3.05320974184731
  H       2.44088085867358      0.34331915877551     -2.20201803147356
  H       3.43789113684527     -1.66480704432939     -3.09812312486113
  H       2.04834107702592     -2.56333937392470     -2.45236215111146
  H       4.07992370826258     -0.99689563046578     -0.77633793655350
  H       4.09741250300869     -2.75219103616938     -1.01420613410803
  H       2.91204507327464     -1.84059239161139      1.05380749570053
  H       2.00805576780320     -2.86716623207337      0.15794197417677
  O      -0.40418515803118     -2.37770759786159     -0.57514228494819
  H      -0.83279691422477     -3.21289186032917     -0.77232243470280
  S       0.40962011602479     -1.19616609897956      5.01977553563307
  C       0.52713607683001     -1.01723875771317      3.44400074813570
  N       0.59617104855430     -0.88001765335531      2.25619267553169
  C      -2.32665971812952      1.12711502820823      3.32759483378877
  O      -2.91946866509035      0.86409324835199      2.06182902116697
  P      -2.49833014785362     -0.48156099609103      1.26230933338908
  O      -2.95028394698692     -1.64781453870674      2.29049215662059
  C      -2.19401920391006     -2.82954384935160      2.53166327730001
  O      -3.74879223071822     -0.41418480700603      0.20964088188430
  C      -3.94821673361799     -1.53215673642296     -0.63766314904648
  H      -2.40401619345356      0.25362767841984      3.99386836028531
  H      -2.87830514921205      1.96681959446143      3.76989111015626
  H      -1.26171931000947      1.39934975089446      3.22477947033340
  H      -2.89204567685547     -3.67889352668629      2.53378102882440
  H      -1.70211142779114     -2.75809078694753      3.51352102643731
  H      -1.42917874140417     -2.98527780051109      1.75313292212178
  H      -4.74000512587966     -1.26432531508645     -1.35099972888689
  H      -4.28487238140793     -2.40805583245556     -0.05862473106336
  H      -3.02869771513045     -1.78775920147842     -1.19418135967504
  C      -2.70118165113231      1.40408332572528     -3.78069829497095
  P      -1.79572370322338      1.71275850005896     -2.25743709068296
  O      -1.08831102888988      0.40514514800751     -1.82227097584127
  C      -2.95854233863533      2.34360458128049     -1.04738655936765
  C      -0.58243808688200      3.00681291045562     -2.55962502806792
  H      -2.00649836081314      1.04176796347174     -4.55304859796574
  H      -3.20053139672854      2.31760815656589     -4.13704079751272
  H      -3.45764754234241      0.62728320118746     -3.59181697831069
  H      -3.42713902179242      3.26431531970784     -1.42740575955936
  H      -2.41593765454571      2.55332541022929     -0.11495440483249
  H      -3.72148876007211      1.58189443358434     -0.82759629975790
  H      -0.04107852824444      3.16013097476538     -1.61239665900839
  H      -1.06840693590291      3.94383544860735     -2.87054838379134
  H       0.12065506432323      2.68687378901103     -3.34365693435486
  C       3.40606875390178      1.03495642820976      1.38030153625482
  O       2.44695788043103      1.06255630155457      0.33926412464299
  H       2.95590836473855      0.71323956940777      2.33487343141112
  H       3.87449621170432      2.02368942399862      1.51081397091440
  H       4.20031659827407      0.32508455132325      1.10474061886692
  H       1.72226203766666      1.70822983685519      0.55289028025018
  O       0.01756797199283      1.76113482146061      0.51278717236262
  H      -0.37881099142841      2.35992450611707      1.15230749919814
