32
Coordinates from ORCA job orca
  Pa     -0.29752362146289      0.87644300047306      1.09489000486936
  C       3.33845845449977     -0.40083925359595     -1.37941310663203
  P       2.79120220879893     -1.04767309326669      0.18303958920847
  O       1.34698906494127     -0.17978143789505      0.57143138779156
  C       3.92736894901499     -0.70833388651825      1.50627199548929
  C       2.31633038092859     -2.75743065927511      0.09744569626115
  H       4.26268779210593     -0.95441458819199     -1.64218912067214
  H       3.59861208842521      0.66778791825612     -1.30977834577265
  H       2.60167823084043     -0.58327939073695     -2.17827902858477
  H       4.86021831076670     -1.25909212681869      1.26939585006578
  H       3.55106393546518     -1.08437222340772      2.47122498370344
  H       4.17756990696302      0.36349913619164      1.56187266779210
  H       3.23746298035399     -3.32870279653159     -0.13649468897490
  H       1.59568118114500     -2.93914307482370     -0.71585347109971
  H       1.93209127602662     -3.12224758864289      1.06382068576143
  S      -1.24574935867781      0.66860697770102      5.78317897100850
  C      -0.93181780380850      0.74882509162748      4.30252425508975
  N      -0.66544719058644      0.82141591501685      3.06233649365475
  C      -4.84402717640133      0.50596629255577     -0.86716679782915
  C      -3.97357213102816     -0.44580335234502     -1.41944672281217
  C      -2.65630538731420     -0.49592099035492     -0.99171057663482
  N      -2.20450999392992      0.36543724317016     -0.04015379968781
  C      -3.05559211395972      1.28401530570058      0.49977555525461
  C      -4.37774171449293      1.39518770774173      0.11659520488389
  H      -5.88886535543685      0.55709100194038     -1.19984931365997
  H      -4.31943689821725     -1.14744954702499     -2.18682291534867
  H      -1.94762230082481     -1.22095910310367     -1.40520950289303
  H      -2.66388364993714      1.95377930213578      1.29877252448164
  H      -5.03514492307333      2.14406771672102      0.57064962637565
  O       0.12687106094617      3.21928778098881      0.95036437735520
  H       0.36730295257787      3.80591519981921      1.70134645142061
  H       0.08095084535159      3.82301752249355      0.17623107013450
