52
Coordinates from ORCA job orca
  Pa      0.49582263522079      0.23917100965334     -0.03870278326470
  N       2.87682874762245     -0.35076060180606      0.67510711322228
  C       3.52496907258589     -1.35721678927772     -0.20277761444802
  C       2.59047510858108     -2.52809263805134     -0.37286338640734
  N       1.29905624711898     -2.03515690044731     -0.91402804682890
  H       3.42834972146656      0.51321543256254      0.65485378179257
  H       2.94586259448691     -0.66700018745615      1.64953322364819
  H       4.49364610384369     -1.68637075353112      0.20651526288546
  H       3.73035375081781     -0.87758689263401     -1.17398431057613
  H       2.39421460884489     -3.01684790211665      0.59691921847109
  H       3.03809332649707     -3.29321105385638     -1.02764732944868
  H      -0.51468253404657     -0.29822915421374     -3.32661763255409
  H       1.41956684421604     -1.85347568085446     -1.91839748170922
  C      -3.16953117663367      3.15740245989514      0.89176524159563
  C      -2.62991593930604      1.99532040314728      0.10830280297549
  O      -1.16007905459912      1.98402712980742      0.12125354305478
  H      -4.27022775108778      3.13728128036408      0.85465081423897
  H      -2.85722474297006      4.12073740339999      0.45631071895699
  H      -2.86968228741546      3.12303317004528      1.95038438236265
  H      -2.94808514000957      2.02706761874567     -0.94576513702933
  H      -2.93075067826989      1.02838208328585      0.53928393315158
  H      -0.84838786649519      2.89580171483962     -0.05204794583047
  C      -0.57980381723779     -2.68762793817435      2.71889905790226
  P      -0.45436086279394     -0.87166956691037      2.62872799283379
  C       0.71772427378966     -0.38613169254596      3.94033424866114
  C      -2.07350758900490     -0.23005791580151      3.16567387860983
  H      -0.87523062277447     -2.98150370317256      3.74086312176587
  H       0.38815936802923     -3.16214229585501      2.49412958393401
  H      -1.34224150149561     -3.06515167144756      2.01984207150870
  H       0.32038221252155     -0.70795866922294      4.91834929855533
  H       0.85398640135735      0.70612731932875      3.96543918903060
  H       1.69534466650218     -0.87310263124070      3.79954326614562
  H      -2.27767708927373     -0.58559642694864      4.19020651028656
  H      -2.88155527071550     -0.59561792685967      2.51290972718562
  H      -2.07634437691394      0.87076370537853      3.17287769383938
  C      -1.47351815824487     -0.23631454729135     -2.79363434456987
  C      -2.53997478816087     -1.19969883827606     -3.25814330331200
  C      -3.34334035197773     -1.45962373603899     -1.98891849770968
  C      -2.25547763525577     -1.58465101939958     -0.94586117233241
  O      -1.22389477353262     -0.62781274330422     -1.37366788808046
  H      -1.81259295690724      0.81049459854346     -2.77461573293047
  H       0.60894670556739     -2.79245890054883     -0.88171561038539
  H      -2.09222686773807     -2.13127279748384     -3.64017816000980
  H      -3.14615460858232     -0.77042604575230     -4.06951473088174
  H      -3.96099979223761     -2.36815808637346     -2.04411911984296
  H      -4.01199729362000     -0.61487989748068     -1.75660762551894
  H      -1.80427742975546     -2.59202247942155     -0.94164767905452
  H      -2.56670023572863     -1.31597776711274      0.07725676815764
  O       1.28650037358866      1.01499404111216     -1.43127025212003
  S       1.67015209741324      3.67007165644535      1.06230062922208
  O       0.54619552523911      4.23829679437958      0.35111630695886
  O       1.59811280747417      2.18091802997391      1.16627640389203
