36
Coordinates from ORCA job orca
  Cm     -0.37624168548831     -0.51343843921017     -0.16555185896807
  N       0.45815411448577      0.30426000398605      2.16868705255990
  C      -0.47553053157533      0.51269913930612      3.09039125317110
  C      -0.16831925624561      0.60700163072679      4.44723210238659
  C       1.15838662401433      0.46409715043871      4.83621735514376
  C       2.12999992081177      0.24019973423023      3.86593581686854
  C       1.73656505355127      0.16380180705917      2.52645995262405
  C       2.69539698186384     -0.07266645682413      1.41862411047578
  C       4.07511210960540     -0.19256048893896      1.61996124772198
  C       4.90248904297422     -0.41002434079479      0.52396123522560
  C       4.33966664494652     -0.49988522176717     -0.74524512695940
  C       2.95793454428906     -0.36642301625566     -0.86149692253368
  N       2.17101542832018     -0.15876378707124      0.19046522276556
  H      -1.50472429330873      0.59801677296809      2.73078302674190
  H      -0.96519578408477      0.77781852481121      5.17371348520666
  H       1.44044830246343      0.52132526061563      5.89132682313583
  H       3.17480602055655      0.11730004506764      4.15472616892507
  H       4.50093822847902     -0.11959368191446      2.62143290015730
  H       5.98249673343121     -0.50998086100270      0.66450069224658
  H       4.95153005062343     -0.67294027734315     -1.63302288603187
  H       2.42481976843598     -0.43346846683257     -1.81744262039735
  C      -1.92116970743371      2.65198411815035      0.43540426543315
  N      -1.50610730514761      1.56900262962058      0.22530142105097
  C       0.44528192123716      0.59270706126816     -3.34035692326504
  O       0.27242124258814     -0.09331978216623     -2.17178069536968
  H       1.52252564803489      0.78619275585505     -3.57051715312814
  H      -0.04693130499226      1.58973076456303     -3.33303413896966
  H       0.04238311863954      0.04790676101857     -4.22315634511043
  F      -4.07178159011958     -2.38216494012802      0.95368007159356
  P      -3.42050343402370     -0.93665522512259      0.69822063011524
  F      -4.82562785851572     -0.31515437280936      0.13764050807810
  F      -3.63667366441263     -0.31627551345813      2.17138231074417
  O      -1.25508362535194     -2.71668421498040     -0.46221638710687
  S      -0.84510888026369     -3.00699213442042      1.02592291713528
  O      -1.62912268510013     -1.85238102660525      1.77572202847650
  O       0.60875010671191     -2.45107191203996      1.04552845985688
