35
Coordinates from ORCA job orca
  Pu      0.33643882677008     -0.21870819918887      0.34983877741780
  C       1.22642286335789      2.04133221753621     -0.14648146385438
  N       1.61292010245139      3.02878233552147     -0.63728717587802
  C      -1.73050872723687     -2.90489933327150     -0.37471734480954
  N      -1.05287993764860     -2.07499915000590      0.12014142047772
  O       2.11442213281076     -1.40858237045380      0.59645797979363
  S       2.84167163525690     -2.32935714821358      1.68842627889239
  O       4.27488685455575     -2.04142221052592      1.65813642375939
  O       2.32091919901450     -1.54478926247585      3.08775654200088
  C      -1.71005641829681      1.17176933505317      0.11532823136431
  N      -2.66500581339556      1.76145183986441     -0.21261741748241
  C       0.08458322161480     -0.14060836436892     -4.59022373298193
  P      -0.66874772945731      0.38213733298946     -3.03513899760947
  O       0.20133537536917     -0.18535209824422     -1.89358606426302
  C      -2.33877803535089     -0.27622514701881     -2.98218020539915
  C      -0.74048605093100      2.17428209940849     -3.02967003637310
  H      -0.48925776069915      0.22210560699396     -5.45595415916969
  H       0.12887831922365     -1.23978596690246     -4.60610830363932
  H       1.11008341086048      0.25605910835391     -4.63095690562300
  H      -2.88326793900629     -0.02493800073739     -3.90538236071767
  H      -2.84433156139794      0.16693931535834     -2.10873322809689
  H      -2.28619079278585     -1.36760749985592     -2.84314723627663
  H      -1.39035911975537      2.48269167719908     -2.19495571429910
  H      -1.13889370280949      2.54254097331976     -3.98758426643873
  H       0.26908251876370      2.57052850088646     -2.83427794431400
  C       0.31174722991593      0.82244269279073      4.59259584772086
  C       0.19622685233953      0.73719472857180      3.23717367888710
  N       0.28901017207217     -0.44737827706448      2.57411312128208
  C       0.89434592968939     -1.54159355114988      3.27485482464585
  C       0.64260036797095     -1.43355763317594      4.75295948144398
  N       0.43370930812144     -0.32042797779908      5.35342073238444
  H       0.19772844462054      1.77241417337588      5.11913423229732
  H      -0.05723536962138      1.62339678445005      2.63259329051731
  H       0.49739589879373     -2.49531530691693      2.87240406491300
  H       0.68589029481973     -2.35932122430375      5.34456762942801
