46
Coordinates from ORCA job orca
  Bk     -0.22022106200924      0.37795074142461      0.58369118879202
  C      -3.40621310161248      3.01708058880749      0.30445860393271
  P      -2.87276799028996      1.39589605287802     -0.34840488970580
  C      -3.10418081013730      1.53705382206235     -2.15544531132009
  C      -4.18721035978016      0.24198080887897      0.18571961733603
  H      -4.42341970591701      3.25492499841589     -0.04628636750630
  H      -2.72603104718663      3.81226414404886     -0.03847537885620
  H      -3.41489997833267      2.99852709203785      1.40527822595769
  H      -4.13687760192368      1.84437733534620     -2.38647296846819
  H      -2.91059680372289      0.56965551978728     -2.64444312022589
  H      -2.41266908521487      2.28513864952600     -2.57277439362160
  H      -5.17563466029973      0.60355412888104     -0.14100275452320
  H      -4.19440101034066      0.14707159195217      1.28307584445133
  H      -4.01469540841386     -0.75298790811415     -0.25350356768334
  C      -1.41230708133389     -2.76891195332407      0.78388581225189
  C      -1.08440423730204     -4.05267417231641      0.05781244415331
  C      -1.27821139300555     -3.65888846650904     -1.40201305825271
  C      -0.67892012085254     -2.26838879736563     -1.44731239672443
  O      -0.92070082838002     -1.71456750823823     -0.11553913939292
  H      -0.90690315640084     -2.64163366631941      1.75199609580381
  H      -2.49785540675440     -2.62049652190069      0.90492648231729
  H      -1.73557675278369     -4.88024923507676      0.37311319200767
  H      -0.04179761201000     -4.35207299566208      0.25313189892569
  H      -2.34885998690649     -3.62803508535735     -1.66069196953404
  H      -0.78418788406315     -4.34122928279794     -2.10818005640050
  H      -1.14472967453887     -1.60034230753838     -2.18843784478671
  H       0.41191978724466     -2.28928518933005     -1.60766505993924
  C       3.71963135367857     -1.13518397675230     -0.47768538921005
  P       3.17677282082828      0.56384136613812     -0.62401459367554
  O       1.59840459578945      0.62880611336332     -0.52303376483536
  C       3.66978276148083      1.23332354216345     -2.20776528939685
  C       3.90999430851287      1.52040172357313      0.69905041792873
  H       4.81637411269005     -1.18519550713800     -0.57060708953524
  H       3.26801236751346     -1.74585020941112     -1.27436834887121
  H       3.42372532184359     -1.51704338895993      0.51327551652561
  H       3.21781245457114      0.64341693908590     -3.01947569190604
  H       4.76633199722062      1.19783164468792     -2.30535057082298
  H       3.33592943933614      2.27889612099045     -2.28992637341765
  H       5.00758633511577      1.50636429571764      0.60386761157582
  H       3.62877210326346      1.06824636576892      1.66408113229113
  H       3.56246168603112      2.56365881215697      0.64891600114279
  O      -0.36924840267902      2.12791279312153      2.23697411412991
  H      -0.07574813272772      1.84757559116553      3.12024853186570
  H      -0.62572634583148      3.05896022478302      2.30347054913918
  C       1.70178055239115     -0.74423432037355      2.51497294176215
  N       0.53140364323983     -0.55504051427747      2.48962916632170
