33
Coordinates from ORCA job orca
  Bk      0.09970776396941      0.14348489571915     -0.36382745473267
  N       0.12562845973777     -0.42746088124329      1.98598523845404
  C       1.49049297232527     -0.75654417109668      2.49947417230963
  C       2.48472171150962      0.25690586968773      1.98459935447703
  N       2.45512759994507      0.27624156215953      0.49328903899510
  H      -0.23746267126931      0.38011512060938      2.51242157678972
  H      -0.52018459585054     -1.18413925048558      2.24891454732787
  H       1.74868972539586     -1.77551053180878      2.16298704786821
  H       1.49711098997920     -0.77973438875644      3.60120986356338
  H       3.49425865416708      0.02215958262906      2.35960985755868
  H       2.24013719387949      1.26969810963854      2.34753581901485
  H       2.97943860943671     -0.54457505311893      0.15521365027218
  H       3.03583414259926      1.05827298470374      0.16532932427028
  N      -0.35903580263279      2.40425702746015     -0.26653778115398
  C       0.61727363692005      3.32321654309199     -0.44223614382360
  C       0.37288896981138      4.68639352325527     -0.43523323225734
  C      -0.93973487429507      5.11722134252262     -0.23586831038222
  C      -1.95414801643619      4.17372826106083     -0.06181485041862
  C      -1.64835165234671      2.81631697283213     -0.08454240484185
  C      -2.66200544403630      1.75024769836353      0.05636570395103
  C      -4.02644149041917      1.99284139938453      0.18906046638970
  C      -4.91124238063750      0.91564949693453      0.28191780153677
  C      -4.41590932471528     -0.38801327009980      0.23922559395435
  C      -3.04557246959719     -0.56104988336088      0.11068373072449
  N      -2.18731038527050      0.47580020875544      0.02487982365732
  H       1.63585657741258      2.95234737283447     -0.60615213339741
  H       1.19251631520525      5.39388609022671     -0.58679618408075
  H      -1.17738997488906      6.18582686292579     -0.22151026878650
  H      -2.98150733993407      4.51142620775207      0.08580747986308
  H      -4.41776384643000      3.01148916304000      0.21199823128641
  H      -5.98614181584998      1.09758184723862      0.38153469302869
  H      -5.07800755904625     -1.25593805614523      0.30121059618378
  H      -2.62507367863807     -1.57554265671021      0.06936515239834
