31
Coordinates from ORCA job orca
  Ac      0.09830402830288      1.10327940399801      0.02224106982329
  N       0.75641788702321      0.61870826714501      2.57302262190372
  C      -0.20657230472707      0.82246494355982      3.47935183208910
  C      -0.02268990168802      0.56853710587179      4.83582173860509
  C       1.21413895851732      0.09413254184311      5.25500167446009
  C       2.22149274234267     -0.10285164454950      4.31326960827760
  C       1.96460826234804      0.17147786688317      2.96916900274265
  C       2.99721014758689      0.00949028170154      1.91431318056560
  C       4.30550781517607     -0.39225052833240      2.19949602592407
  C       5.23006068295121     -0.50621121188877      1.16646975089684
  C       4.83476308346239     -0.21911793199943     -0.13689237395213
  C       3.51692540481461      0.17116567399000     -0.33948128190422
  N       2.62469382473554      0.28352728275518      0.64873233526052
  H      -1.14817479153262      1.23243107994247      3.09621128317796
  H      -0.83711219634047      0.75051143607875      5.53956866090299
  H       1.40341286772162     -0.11645005282312      6.31057068323735
  H       3.19698009115627     -0.46584324816596      4.63710269424586
  H       4.61260706371387     -0.61050711054897      3.22229500568562
  H       6.25607197600524     -0.81507855100456      1.38169668361108
  H       5.52653012199996     -0.29177031311745     -0.97805393067432
  H       3.17013865621441      0.40925184629023     -1.35409752549204
  C      -2.63550524721223     -1.57868875519425     -0.42473330316142
  O      -1.87509985170850     -0.37880531752604     -0.41711256291479
  H      -3.43841976205218     -1.53520724403914      0.32683653548130
  H      -1.96413153319649     -2.41333297056109     -0.18064618489281
  H      -3.07281239068432     -1.75481322551475     -1.41919364000425
  H      -2.41836567171881      0.43465399982069     -0.63122083549194
  O      -1.38561681377876      2.45520001071366      1.32924446794384
  S      -1.71642164559943      3.25516311754926     -0.01749916077085
  O      -0.22434641558142      3.38467880259326     -0.56695360568537
  O      -2.23769508825207      2.08655444452950     -0.90883044989073
