46
Coordinates from ORCA job orca
  Bk     -0.21483821603074      0.10085314045102      0.14002387177258
  C       4.42026957832026      0.13373070613189      0.03250592899795
  C       3.06164248594281     -0.47893113400775      0.16720571613305
  C       2.94029453974659     -1.83131258801315      0.53660058803240
  C       1.72953389680534     -2.52616414182748      0.65391618795153
  O       0.57680333226448     -2.00903859699026      0.45009272815325
  C       1.73986315215008     -3.97528216593971      1.03204510360855
  O       2.07032318141583      0.28447060631790     -0.07219939877088
  H       5.23302023786649     -0.57206642548372      0.24243459750675
  H       4.49718866499232      0.99204772889086      0.71932931204436
  H       4.53828068505476      0.53032486042076     -0.98880539863005
  H       3.85960069267664     -2.38582388080154      0.72620262811223
  H       2.75131583362359     -4.37042678441447      1.18676334775803
  H       1.24051836185131     -4.56426664208743      0.24522731901136
  H       1.15327549910680     -4.11026002730202      1.95536247049637
  C      -1.72374954528281      3.27364941764188     -0.58499595202279
  C      -0.25810583183981      3.47918722442378     -0.86659048463915
  O       0.36852524682958      2.19197305885099     -0.90999132382522
  H      -2.24492628371810      4.24103115627104     -0.54124803590089
  H      -1.86989508965502      2.77020469584255      0.38654036417386
  H      -2.19828410360300      2.67476437121411     -1.37979490467799
  H       0.21432946137160      4.08584769850925     -0.07578014692858
  H      -0.10238478327690      3.98575162582003     -1.83351172815738
  H       1.33703241390071      2.24410943379825     -0.92132665964801
  C      -2.57964492508668     -0.22969229236096      3.46203023398674
  C      -1.53062969984186      0.83420503120702      3.20533540423778
  O      -0.93161271883918      0.67571850302782      1.95951858800726
  H      -3.05903807497421     -0.08970484867599      4.44350577086289
  H      -2.12565890108030     -1.23459960185300      3.44573652252653
  H      -3.36691865022579     -0.18884405219163      2.69035321156439
  H      -0.76086802279218      0.79961312848767      3.99997674919027
  H      -1.99745862717031      1.83669622495655      3.26807323561000
  C      -4.11778243091346     -2.22068370406605     -1.92770078229763
  P      -2.49712540733165     -2.31866311879515     -1.16245738469573
  O      -1.89904607134531     -0.90205133811832     -1.00870564295874
  C      -1.43741229972555     -3.34244535615141     -2.19245109924050
  C      -2.64716924551373     -3.12148371520520      0.43758019595597
  H      -4.02211974570196     -1.73508330066356     -2.91066033302140
  H      -4.77921467292875     -1.61051971313642     -1.29435331181854
  H      -4.55512430787667     -3.22233438769255     -2.05567609583867
  H      -1.85353543318496     -4.35424105407688     -2.31233966509375
  H      -0.45125453134270     -3.40270671435059     -1.70661621638285
  H      -1.32594053232347     -2.87370947586637     -3.18189931442150
  H      -1.63586869528276     -3.18260772965028      0.87164958329237
  H      -3.07674408835633     -4.13015227757117      0.34144240450501
  H      -3.28496632867489     -2.50978354497019      1.09425181547873
