55
Coordinates from ORCA job orca
  Md     -0.57241777326920      0.04349808243926     -0.05113045729671
  C       3.91616477852903     -0.88423748165495      0.19904476509531
  C       2.58922014018450     -0.39480796093622      0.70117170423775
  C       2.36786313778327     -0.30306375573515      2.09384449472582
  C       1.18855219134693      0.19088205277567      2.67062735051046
  O       0.15975419775587      0.54961116546597      2.01847385946820
  C       1.09494279208130      0.33423882737514      4.16368795620298
  O       1.72761367841615     -0.11285901982399     -0.17573997496351
  H       4.68149526775876     -0.94592862871482      0.98408531326410
  H       4.26177880750128     -0.23309965283380     -0.61792421148727
  H       3.74288624385684     -1.88677803007808     -0.22629197722318
  H       3.18854626782958     -0.57176584448514      2.76058862686847
  H       2.00495113585789      0.01227730082312      4.68666567162321
  H       0.23365053175758     -0.25167939107656      4.52314791375620
  H       0.88301856750216      1.38717244859739      4.40989715445391
  N       0.05803335046758      0.83498138666722     -2.31358970527948
  C       0.22394017723034     -0.09349588782788     -3.24932855885668
  C       0.57421164405522      0.22601000839452     -4.55795384188504
  C       0.73883632533081      1.56907247753274     -4.88331954998930
  C       0.54686065365265      2.53703126819515     -3.90283565295657
  C       0.20146837780811      2.13002750653207     -2.61037507982598
  C      -0.05090423374004      3.07853874284792     -1.49626690362314
  C      -0.03893626291683      4.46620661869789     -1.66309346658299
  C      -0.31465473077465      5.27921678792208     -0.56872190166315
  C      -0.59264965832950      4.69232733385367      0.66146518430288
  C      -0.58014740017032      3.30239836847585      0.74502592131716
  N      -0.31569540659757      2.52804431196648     -0.30343008206156
  H       0.05409789178258     -1.13158756263655     -2.94051662143404
  H       0.70557385250424     -0.56397928021841     -5.29979388063901
  H       1.01038713664050      1.86613630891078     -5.89963924091224
  H       0.66563963596382      3.59341477858364     -4.14676943592223
  H       0.17140922136575      4.91126720670300     -2.63637206996772
  H      -0.31634517646577      6.36651399617463     -0.68111103698517
  H      -0.82021568269054      5.29393498675308      1.54346145491059
  H      -0.78519039398213      2.77732308867964      1.68395988882462
  O      -2.75028888670714      0.78367759487433      0.16513784954814
  S      -3.11725855554816     -0.66412764066101     -0.33310946777389
  O      -2.19803468304662     -0.76460129575403     -1.60653027166421
  O      -2.25051359699378     -1.50788629754773      0.67662023966463
  C      -0.53395032792231     -3.16545310769367      2.54024419614787
  O      -0.34477587576953     -3.76789690507148      1.26961337905355
  P       0.14829950622383     -2.84409485044052      0.00889001978024
  O       1.69623370324890     -3.33094456738285     -0.19725319950868
  C       2.02283665840609     -4.70637010087856     -0.28354455726654
  O      -0.50516425326608     -3.70810378171869     -1.20967897937063
  C      -1.89832111672352     -3.96221069594183     -1.31491036916942
  H      -0.87300060020232     -3.95791836453517      3.22268202503659
  H      -1.30135744175896     -2.37680765337968      2.48265989564429
  H       0.41198069470738     -2.74848338717291      2.93043499384642
  H       3.11829954463156     -4.78745099631843     -0.23774951312965
  H       1.66081370652117     -5.13463101802664     -1.23127914718431
  H       1.57931881580198     -5.26803117508797      0.55465701586660
  H      -2.01266137361033     -4.87237556654588     -1.92241559758647
  H      -2.39670114410614     -3.11126025613820     -1.80254213284250
  H      -2.34219405991222     -4.12607249292441     -0.32126998909866
