33
Coordinates from ORCA job orca
  Bk     -0.21972559682682      1.21067949946272      0.99696448339831
  N       0.19277285539027      0.92342796805448      3.78676691665992
  O       0.33854494868929      0.79770994120907      4.95909933407674
  O       0.31338673689035     -0.05260855866875      2.97242096635037
  O      -0.09269014959333      2.03383024099723      3.24070366279157
  C       2.17511882412204     -1.34708158839956      0.93393462503093
  C       2.55719653318092     -2.37969447502516     -0.10682529822792
  C       2.68068838011189     -1.52772027217203     -1.36520401549235
  C       1.51974447191233     -0.56333062241243     -1.21339493741511
  O       1.36409199044240     -0.39723428411737      0.21528219400773
  H       3.05938978666796     -0.81904455872558      1.33194479737872
  H       1.58873058249803     -1.73313991279783      1.77880093049771
  H       1.75211474188472     -3.12452296116447     -0.22014263679438
  H       3.48153341319777     -2.91474497557524      0.15460746582577
  H       2.61925642652014     -2.10808075576121     -2.29707394367943
  H       3.63853387312265     -0.98196976191295     -1.36767875796738
  H       0.57447508098220     -0.97163539132529     -1.60727115823099
  H       1.69216838551394      0.43266307089743     -1.64858091965002
  Cl      0.88143368409176      2.92048773124037     -0.49393207550003
  C      -6.36883610152814     -0.36918573409164     -1.84073291973456
  C      -6.26977729296637      0.66082493477462     -0.90400408455215
  C      -5.04138844492335      0.95088147625070     -0.31918846944230
  C      -3.91197021391218      0.20458834642080     -0.67269062648894
  C      -4.01192884347649     -0.82816755881513     -1.61125726727179
  C      -5.24191890791649     -1.11331787246239     -2.19444173750120
  C      -2.60406915329111      0.51622720599304     -0.05829961304892
  O      -1.57163507836426     -0.15503696812322     -0.36327408718475
  O      -2.50405023328573      1.46885039921793      0.77882155300482
  H      -7.33512480111162     -0.59450761688135     -2.30031053350456
  H      -7.15559349117527      1.24030713012997     -0.63180135227838
  H      -4.93193630598542      1.75367487645702      0.41367901482914
  H      -3.11304701581789     -1.39309287866219     -1.86839675754712
  H      -5.32648908504410     -1.91773607401157     -2.92962475233945
