56
Coordinates from ORCA job orca
  Pu      0.16427199938928      0.23870012600204     -0.00077216705569
  N       1.40474868733627      0.01548220734425     -2.18221080234050
  C       1.25533855984447     -1.30399118191075     -2.83677556562185
  C       1.44891055039983     -2.37194432956696     -1.78887187051032
  N       0.46564604887455     -2.20670628921570     -0.69383789258725
  C      -0.81222719896799     -2.94717561354590     -0.87822999440307
  C      -2.00756221912918     -2.01965339234448     -0.83289026779441
  N      -1.87921355078372     -1.11350914394996      0.32180543875325
  H       2.39163985401627      0.13395998928208     -1.92438904291080
  H       1.23146456708497      0.76863177980441     -2.85639487921529
  H       0.24874140535090     -1.36718071454263     -3.28622916455180
  H       1.97593887968819     -1.43452774124053     -3.66105127331473
  H       1.38241956343114     -3.37812845683440     -2.23524758354037
  H       2.45786228410750     -2.28509729330286     -1.35251491644884
  H       0.90337745592607     -2.58531310993786      0.14625021382744
  H      -0.80501457356882     -3.49858750775048     -1.83151934933910
  H      -0.89834564449092     -3.70864272513820     -0.08537170014080
  H      -2.06329875141850     -1.40246927379222     -1.74730821464793
  H      -2.94187075645970     -2.60530873230649     -0.79870292824647
  H      -2.72929047390531     -0.55101636403452      0.42559421854902
  H      -1.79535192397127     -1.64862378026877      1.19385589551935
  C       2.46223585479442     -0.85892237784195      3.22192266451941
  C       1.66986732478090     -0.78222035508570      1.94861170775055
  O       0.39484849827311     -0.89181224890790      1.95184994950699
  O       2.19247618176435     -0.45486334487837      0.83412477752283
  N       2.32862450572734      0.47212771738015      3.79830916948425
  H       3.50125242465371     -1.14478943210138      2.99556822081549
  H       2.01858886789899     -1.63301717416274      3.86606029018131
  H       3.21525142597267      0.97342960045245      3.78862318689087
  H       2.02180641985044      0.42627311879659      4.76866907178093
  N      -0.83042435175408      2.03033418069805      1.30935761030537
  C      -0.37407688723133      2.20493066058744      2.56323148649345
  C      -0.96300065908348      3.10822811706307      3.44204364533229
  C      -2.05985987219553      3.84658935866083      3.00480820773685
  C      -2.52884868614902      3.66788509167990      1.70183369423096
  C      -1.89054122434395      2.75351751305541      0.86851358246747
  C      -2.28068286484686      2.50723277253917     -0.53230150614311
  C      -3.26563548174242      3.23630109877154     -1.19846135980249
  C      -3.54537710081822      2.95399791197968     -2.53411668651004
  C      -2.82929881652844      1.94807941736586     -3.18269058374069
  C      -1.86743879918654      1.26127408652926     -2.45544703369212
  N      -1.59703398399460      1.52157868099617     -1.16491648239020
  H       0.49529633140022      1.60663609326464      2.88592342581230
  H      -0.56504981176940      3.22443956862271      4.45283077641998
  H      -2.55122890136038      4.56275345016635      3.67008920450412
  H      -3.38832149083514      4.24277339996303      1.35257863653492
  H      -3.81239403573425      4.03182019753752     -0.68910020995869
  H      -4.31431683030876      3.52149484691603     -3.06676331300406
  H      -3.01087095415777      1.70169532258713     -4.23168157792726
  H      -1.28715258003981      0.46468764933628     -2.93689982762067
  C       3.08887902372071      2.29187658078219     -0.23960261159133
  O       1.65302007536676      2.12129240816692     -0.14699534561890
  H       3.43333432957740      2.95679399711640      0.56495839814640
  H       3.35473241816051      2.71995829656555     -1.21731674252373
  H       3.54291792301042      1.30318480679508     -0.10098906929803
  H       1.23973696437424      2.98994053585242     -0.02891351059522
