39
Coordinates from ORCA job orca
  Fm     -0.38959557199439     -0.56174393201644      0.08269691535466
  C      -0.85675035720502      2.81644296067131      6.23065783792919
  C      -1.46185269556266      1.57324029150039      6.03964045222914
  C      -1.36554913045713      0.93413668566628      4.80553523143914
  C      -0.66673798500306      1.53907663809053      3.75805010556449
  C      -0.06535940614539      2.78544720033264      3.94950643889194
  C      -0.15897764448248      3.42244462934251      5.18439831214452
  C      -0.55673724811862      0.85243656163790      2.42946222663403
  O      -1.07315797896181     -0.29603112809971      2.29931459733124
  O       0.04641431253766      1.41855134592655      1.49163090541432
  H      -0.93006227358867      3.31725307031707      7.20094279912074
  H      -2.01094605992548      1.10104425532623      6.85966085242614
  H      -1.82489175307201     -0.04014746210376      4.61981069054800
  H       0.47004686950030      3.22899474348622      3.10597187327309
  H       0.31373931627860      4.39755805871581      5.33524967157453
  N      -1.46630942128436      1.82771516095699     -1.21826162013049
  O      -0.30785229327249      1.38501571707783     -1.40650771048763
  O      -2.13840699394123      1.13730628090949     -0.43787753363137
  C       4.61953864639259      1.32959457301485     -3.31177619501061
  C       4.14641991031077      0.74209172480715     -2.13798877282288
  C       2.85952731362144      0.21364193075577     -2.07996988055837
  C       2.03402992691233      0.29533642913410     -3.20794352813585
  C       2.51286341993364      0.87484694919536     -4.38898440001094
  C       3.80422119363197      1.39200977610452     -4.44161719151093
  C       0.66669609919575     -0.28809895160292     -3.11739659282078
  O       0.35744912009467     -1.10450271411346     -2.27960826754279
  O      -0.21808556598856      0.09021586908602     -4.03743048890284
  H       5.63340950334734      1.73863970483218     -3.34889986057747
  H       4.78581448418683      0.69227920916968     -1.25264829950511
  H       2.46865780545092     -0.25052453977653     -1.16009999599284
  H       1.89081046218433      0.89954556921828     -5.29011789485602
  H       4.17736012324145      1.83806243868352     -5.36744443589490
  H       0.07481836684390      0.92198644523996     -4.43180906676385
  Br     -1.70837274993866     -2.95766590849724     -0.15193934978123
  C       2.61465714850494     -0.64519647846184      1.48692250064352
  O       1.61630817937311     -0.87900014795931      0.58012717849480
  H       2.42076280893698      0.25575214220468      2.10926861667003
  H       3.60153796565328     -0.47937004906058      0.99240976948127
  H       2.76286215280910     -1.49768504971208      2.18486410977210
