37
Coordinates from ORCA job orca
  Md      0.11992432597946     -0.18815811598611      0.08650670496563
  N       0.91015794921786     -2.48617533545302      0.18055316405680
  C       2.12831268717994     -2.60138424018891     -0.66049655801019
  C       3.10205676616604     -1.49496675862871     -0.31780232457810
  N       2.46648836072097     -0.17153652861152     -0.53723734721179
  H       1.10538824588097     -2.85983492357127      1.11661302868670
  H       0.18350800846667     -3.10323706232968     -0.19900542625037
  H       1.81616913041425     -2.53154618309820     -1.71577237994421
  H       2.61168534403881     -3.58315909624935     -0.53146905527777
  H       4.01923928850283     -1.60235758336945     -0.91903841523570
  H       3.40782348725183     -1.55861279041571      0.74014425805248
  H       2.43830360293443      0.01642761631069     -1.54818357673005
  H       3.06497191035481      0.56664809295405     -0.15244734673205
  C       0.02746838780504      2.85696639082697     -1.09398448682267
  C      -0.93082114751569      4.00027282232712     -0.86322894680255
  C      -0.76971045485301      4.25995404712616      0.63022790996401
  C      -0.69102785409431      2.86132701850199      1.20708586548635
  O      -0.07483449274948      2.05323316710906      0.14132074560513
  H       1.07286291297844      3.19430755971553     -1.17791693780510
  H      -0.22783218005369      2.20306982693857     -1.94304852224595
  H      -1.96225100080023      3.69989682280138     -1.10957503047125
  H      -0.67881552454514      4.87319202196700     -1.48232859638621
  H      -1.60257681635995      4.83123543016441      1.06443037370362
  H       0.15962205391746      4.81455576006154      0.83476371811334
  H      -1.68978433923386      2.43755744308927      1.40668630796560
  H      -0.06019552084171      2.77961610310893      2.10490605513352
  C      -0.40100166921674     -0.60858823789211     -2.08880219583603
  N      -0.53887052182257     -0.87775525535085     -3.21568374288721
  C      -3.54062152148392     -2.12320170652019      2.02267904344509
  C      -2.83172694386120     -0.80869769455677      1.86587418936496
  O      -2.01042232346932     -0.78505367677276      0.64807250582129
  H      -4.14405277289668     -2.09834670562031      2.94335417412613
  H      -2.83798248149536     -2.96597641455373      2.10506112065217
  H      -4.23707860315736     -2.31215404922913      1.18961698898487
  H      -2.12734212955828     -0.61612216846167      2.69029054121152
  H      -3.53242497410681      0.03848469449186      1.80466601098268
  H      -2.56490918969449     -1.03348029063518     -0.11313181709468
