47
Coordinates from ORCA job orca
  Cm      0.61421614089191     -0.05001362533648      0.66939808414464
  C       2.15344833922400     -4.44341476805822     -0.34756412283032
  C       1.57706119126014     -3.09174651587130     -0.71139420125516
  C       1.07162627739953     -2.90673874731149     -2.02126883637289
  C       0.63955921845263     -1.66044492392768     -2.52296123575761
  O       0.53684073420503     -0.60117149042029     -1.86181461494672
  C       0.26868780380201     -1.57465139047983     -3.99089733883839
  O       1.60193681799126     -2.22399985295422      0.18471295559646
  H       2.07905170211749     -5.18440599303535     -1.15643333893194
  H       1.63830786125787     -4.81939144782354      0.55061589008292
  H       3.21099663697275     -4.30865420418519     -0.06949770524637
  H       1.12529536375373     -3.74912762299784     -2.71470198113694
  H       0.35544743796093     -2.53480126962623     -4.51956521154356
  H       0.92053238141757     -0.83246306671362     -4.48011650203646
  H      -0.76439246584223     -1.20085542066091     -4.08194343091201
  C      -2.83770291676736      3.21702025534382     -0.94006023171956
  P      -1.14894559544372      2.55631263443552     -0.73278727323969
  O      -1.32510568673052      1.21397245849372     -0.01432912187341
  C      -0.26810654785127      3.85243634177317      0.15156869333621
  C      -0.51705668344140      2.43702280864617     -2.43406063906070
  H      -3.43698105269717      2.48850325027261     -1.50779795368314
  H      -2.84054682851144      4.18403051503695     -1.46734701058914
  H      -3.28932290780084      3.33972460531888      0.05589588671087
  H      -0.47216754527971      4.82599864099184     -0.32262599264912
  H       0.79717321346038      3.57887793658488      0.10832745292904
  H      -0.58417174464262      3.84700317380690      1.20556345316314
  H       0.42534309963359      2.99429230379265     -2.51403917666504
  H      -1.25645685483703      2.81268159664403     -3.15992929354221
  H      -0.29815687649065      1.37042633264083     -2.60823558927498
  N      -1.36655910570637     -1.63427064069584      0.01566226714119
  H      -1.78872885081006     -1.96539266622373      0.88126694230012
  H      -1.20721901807325     -2.40069053013944     -0.63615694061750
  H      -1.98736724858669     -0.94053628627609     -0.39924172387183
  O       1.44096389276097      1.65501022345747     -0.51995137849578
  H       1.77792963843106      1.27869747962525     -1.34135584644808
  N      -0.26639392045559     -1.14200145570606      3.36619228548552
  O       0.91168751598415     -1.24497925689045      2.92966471563325
  O      -1.11493196296986     -0.64726834597152      2.58753673162676
  O      -0.55775612094366     -1.51543407217167      4.48126306467818
  C       3.27811704867752      0.37103554382301      3.95295409716653
  C       3.36004609130384      0.12481125953454      2.52864075195484
  N       3.38702036917992     -0.08119594733091      1.38806794806296
  H       2.80405879027423      1.35640545959957      4.10007611797170
  H       4.27439087739720      0.32578399261619      4.41661698719337
  H       2.60697224286346     -0.39237275977695      4.37641840944794
  C       0.75538396049441      1.79744112133918      2.51000889997245
  N       0.89867528671379      2.63103436680763      3.32042505694043
