25
Coordinates from ORCA job orca
  Fm      0.62525440291364      0.48026089420274      0.51086826317707
  S       3.28420582377627      0.70151838425814      4.06741348052463
  C       2.97493280277168      0.47303946008833      2.51648164442766
  N       2.67598201425113      0.31716436993972      1.36773975391285
  C      -2.81712671894530     -5.42374839354257     -0.54996990595266
  C      -3.00233003856452     -4.72772055541255      0.64578478805505
  C      -2.33130393554220     -3.52885169416842      0.86065248278079
  C      -1.47392884414242     -3.02739865391561     -0.12518381501082
  C      -1.28847393721129     -3.72589744707086     -1.32372080565496
  C      -1.96216522835486     -4.92420319162993     -1.53375573012186
  C      -0.75530518632103     -1.75818936335303      0.09857370036770
  O      -0.91095391826986     -1.10168178404454      1.17659906188116
  O       0.03902537653674     -1.30442166467442     -0.78494672907515
  H      -3.34496573256419     -6.36673201044897     -0.71680348439691
  H      -3.67251898283561     -5.12501934054550      1.41217679087980
  H      -2.45584120432978     -2.96483552572000      1.78776447916187
  H      -0.61270850903624     -3.31197115828517     -2.07568996685855
  H      -1.82224777830758     -5.47427201075033     -2.46768940264051
  N      -0.07557319903314      1.14119928467969      2.74602939856570
  H      -0.77488058734508      0.47238839635617      3.07568778066390
  H      -0.49824448407672      2.07063043132912      2.78413217009752
  H       0.69960096104041      1.13341564723413      3.42361967191182
  S      -1.07526153864449      4.78639214386039     -1.30272118256433
  C      -0.50965909350941      3.41727451793115     -0.74136368953210
  N      -0.08272670830309      2.38350261183593     -0.30813845364788
