39
Coordinates from ORCA job orca
  Cf     -0.48117820873468      0.95141251337879      1.46951772000446
  N       1.95431242662937      1.31928948861905      1.24590115390564
  C       2.38682092170108      2.23456058751081      0.37212353185689
  C       3.73859244349046      2.52998958456263      0.21439533895941
  C       4.66004176896884      1.85122797041334      1.00237668797718
  C       4.20580484676164      0.90774625756124      1.92113901116546
  C       2.83684457245191      0.66067529431808      2.02261101675001
  C       2.27003910552623     -0.31352736407822      2.98752309724132
  C       3.06604999405075     -1.10770828638209      3.81689091295875
  C       2.46114163849641     -1.98999221329919      4.70603787596129
  C       1.07214208102197     -2.06772530459315      4.75010665791319
  C       0.34895078525019     -1.25076222194559      3.88977373631435
  N       0.92685521494112     -0.40019490898848      3.03768025960983
  H       1.60262184664116      2.74304600052481     -0.20165590503586
  H       4.05040606117783      3.28410715838607     -0.51064457545702
  H       5.72983476025190      2.05601422628754      0.91286822295027
  H       4.92037709006387      0.38152307569611      2.55450423131995
  H       4.15352156144617     -1.04430203430705      3.77358468436168
  H       3.07461676241787     -2.61385595819469      5.36090473405800
  H       0.55564860178398     -2.74453487961348      5.43313044292035
  H      -0.74728549061463     -1.28364429017622      3.88826277145210
  C      -2.23960985069374      0.30134351389541     -2.03827085450420
  P      -2.51801215267336     -0.85878337419186     -0.69885429944667
  O      -1.39505390039367     -0.74544160088933      0.37833027644884
  C      -2.48871920865551     -2.52558556715562     -1.37070040308805
  C      -4.13703496339675     -0.55309606583780      0.00565831824903
  H      -1.30305041650113      0.04608055485965     -2.55696424935428
  H      -2.14532444900707      1.30789318627042     -1.60136018348675
  H      -3.07515773361568      0.27047475964214     -2.75382864942069
  H      -3.25599728337930     -2.64488923985916     -2.15062788906709
  H      -2.67781138740748     -3.24721881688110     -0.56187611202354
  H      -1.49676991457644     -2.72639370504739     -1.80233049468381
  H      -4.91771515975472     -0.70120165470021     -0.75606907721197
  H      -4.14739947177110      0.48699966959125      0.37096146019079
  H      -4.30844201036048     -1.24681217120913      0.84254467403142
  O      -2.61589260858777      1.95339884938797      0.89647368947569
  S      -1.66891737646654      3.19509219097063      0.81041622624736
  O      -0.54507201306866      2.55947889577536     -0.14222431137330
  O      -0.92407888341395      3.04681587969864      2.19799027182992
