31
Coordinates from ORCA job orca
  Pu      0.22151389459521      2.23255183950347      1.32675522027711
  C       1.60686126324974     -0.22949640246368      4.99722877843536
  C       1.53348075394503      0.13794380966471      3.58323272400916
  C       2.37870605898823     -0.57071838876838      2.60676359808202
  C       2.44016264613983     -0.24268318601617      1.17584924496474
  O       1.72760324232211      0.70096682219607      0.72965337492998
  C       3.32891671858356     -1.00733303946183      0.30120762248679
  O       0.76876925249165      1.05109185779388      3.17349386391910
  H       2.65452000077983     -0.13911169309644      5.35265677883781
  H       1.37472354202273     -1.30814484395531      5.11637318202514
  H       0.93803398856755      0.37853237619653      5.61916420518886
  H       3.01243112548521     -1.38807267590021      2.97161659714849
  H       4.37505471991993     -0.90655881748646      0.66141105460687
  H       3.25907387511147     -0.69073740191406     -0.74679147994524
  H       3.11673023898157     -2.09161596671342      0.39891123802735
  C      -2.90344762860414      1.20684410342780      1.24988869455035
  C      -4.04089475329248      1.37148753494859      0.27265025147732
  C      -3.43367693258036      0.86855013546747     -1.03244213628916
  C      -2.05240526283965      1.47978310896903     -1.02873518770227
  O      -1.68706074302727      1.52852729832511      0.43206136637875
  H      -2.78332588406471      0.17026280331222      1.60000522828974
  H      -2.92572426656716      1.90542131594054      2.10424221951091
  H      -4.34824322143894      2.42694664605071      0.19769670522449
  H      -4.92053342173043      0.78947120272036      0.58693027133450
  H      -4.00464353388377      1.18613708457445     -1.91815254952519
  H      -3.37507011824296     -0.23113438520683     -1.05073942066574
  H      -2.04461976246789      2.52138187035359     -1.38670595872343
  H      -1.28136883508314      0.88165900802482     -1.53678336221679
  O       0.78809611524707      4.18401437445119      0.01689612601527
  H       0.47449223934557      5.10226444140594      0.13201245442206
  H       1.42734468804661      4.24096916765623     -0.71925070507442
